(PID.TID 0000.0001) 
(PID.TID 0000.0001) // ======================================================
(PID.TID 0000.0001) //                      MITgcm UV
(PID.TID 0000.0001) //                      =========
(PID.TID 0000.0001) // ======================================================
(PID.TID 0000.0001) // execution environment starting up...
(PID.TID 0000.0001) 
(PID.TID 0000.0001) // MITgcmUV version:  checkpoint67g
(PID.TID 0000.0001) // Build user:        mlosch
(PID.TID 0000.0001) // Build host:        bkli04m001.dmawi.de
(PID.TID 0000.0001) // Build date:        Mon Nov  4 10:21:07 CET 2019
(PID.TID 0000.0001) 
(PID.TID 0000.0001) // =======================================================
(PID.TID 0000.0001) // Execution Environment parameter file "eedata"
(PID.TID 0000.0001) // =======================================================
(PID.TID 0000.0001) ># Example "eedata" file
(PID.TID 0000.0001) ># Lines beginning "#" are comments
(PID.TID 0000.0001) ># nTx - No. threads per process in X
(PID.TID 0000.0001) ># nTy - No. threads per process in Y
(PID.TID 0000.0001) > &EEPARMS
(PID.TID 0000.0001) > nTx=1,
(PID.TID 0000.0001) > nTy=1,
(PID.TID 0000.0001) > /
(PID.TID 0000.0001) ># Note: Some systems use & as the namelist terminator (as shown here).
(PID.TID 0000.0001) >#       Other systems use a / character.
(PID.TID 0000.0001) 
(PID.TID 0000.0001) // =======================================================
(PID.TID 0000.0001) // Computational Grid Specification ( see files "SIZE.h" )
(PID.TID 0000.0001) //                                  ( and "eedata"       )
(PID.TID 0000.0001) // =======================================================
(PID.TID 0000.0001)      nPx =    1 ; /* No. processes in X */
(PID.TID 0000.0001)      nPy =    1 ; /* No. processes in Y */
(PID.TID 0000.0001)      nSx =    1 ; /* No. tiles in X per process */
(PID.TID 0000.0001)      nSy =    1 ; /* No. tiles in Y per process */
(PID.TID 0000.0001)      sNx =   40 ; /* Tile size in X */
(PID.TID 0000.0001)      sNy =  100 ; /* Tile size in Y */
(PID.TID 0000.0001)      OLx =    3 ; /* Tile overlap distance in X */
(PID.TID 0000.0001)      OLy =    3 ; /* Tile overlap distance in Y */
(PID.TID 0000.0001)      nTx =    1 ; /* No. threads in X per process */
(PID.TID 0000.0001)      nTy =    1 ; /* No. threads in Y per process */
(PID.TID 0000.0001)       Nr =    1 ; /* No. levels in the vertical   */
(PID.TID 0000.0001)       Nx =   40 ; /* Total domain size in X ( = nPx*nSx*sNx ) */
(PID.TID 0000.0001)       Ny =  100 ; /* Total domain size in Y ( = nPy*nSy*sNy ) */
(PID.TID 0000.0001)   nTiles =    1 ; /* Total no. tiles per process ( = nSx*nSy ) */
(PID.TID 0000.0001)   nProcs =    1 ; /* Total no. processes ( = nPx*nPy ) */
(PID.TID 0000.0001) nThreads =    1 ; /* Total no. threads per process ( = nTx*nTy ) */
(PID.TID 0000.0001) usingMPI =    F ; /* Flag used to control whether MPI is in use */
(PID.TID 0000.0001)                   /*  note: To execute a program with MPI calls */
(PID.TID 0000.0001)                   /*  it must be launched appropriately e.g     */
(PID.TID 0000.0001)                   /*  "mpirun -np 64 ......"                    */
(PID.TID 0000.0001) useCoupler=    F ;/* Flag used to control communications with   */
(PID.TID 0000.0001)                   /*  other model components, through a coupler */
(PID.TID 0000.0001) useNest2W_parent =    F ;/* Control 2-W Nesting comm */
(PID.TID 0000.0001) useNest2W_child  =    F ;/* Control 2-W Nesting comm */
(PID.TID 0000.0001) debugMode =    F ; /* print debug msg. (sequence of S/R calls)  */
(PID.TID 0000.0001) printMapIncludesZeros=    F ; /* print zeros in Std.Output maps */
(PID.TID 0000.0001) maxLengthPrt1D=   65 /* maxLength of 1D array printed to StdOut */
(PID.TID 0000.0001) 
(PID.TID 0000.0001) // ======================================================
(PID.TID 0000.0001) // Mapping of tiles to threads
(PID.TID 0000.0001) // ======================================================
(PID.TID 0000.0001) // -o- Thread   1, tiles (   1:   1,   1:   1)
(PID.TID 0000.0001) 
(PID.TID 0000.0001) // ======================================================
(PID.TID 0000.0001) // Tile <-> Tile connectvity table
(PID.TID 0000.0001) // ======================================================
(PID.TID 0000.0001) // Tile number: 000001 (process no. = 000000)
(PID.TID 0000.0001) //        WEST: Tile = 000001, Process = 000000, Comm = put
(PID.TID 0000.0001) //                bi = 000001, bj = 000001
(PID.TID 0000.0001) //        EAST: Tile = 000001, Process = 000000, Comm = put
(PID.TID 0000.0001) //                bi = 000001, bj = 000001
(PID.TID 0000.0001) //       SOUTH: Tile = 000001, Process = 000000, Comm = put
(PID.TID 0000.0001) //                bi = 000001, bj = 000001
(PID.TID 0000.0001) //       NORTH: Tile = 000001, Process = 000000, Comm = put
(PID.TID 0000.0001) //                bi = 000001, bj = 000001
(PID.TID 0000.0001) 
(PID.TID 0000.0001)  INI_PARMS: opening model parameter file "data"
(PID.TID 0000.0001)  OPEN_COPY_DATA_FILE: opening file data
(PID.TID 0000.0001) // =======================================================
(PID.TID 0000.0001) // Parameter file "data"
(PID.TID 0000.0001) // =======================================================
(PID.TID 0000.0001) ># Dynamical comparison between continuum mechanics in MITgcm and
(PID.TID 0000.0001) ># Discrete model DESIgn fron A. Herman, described in Herman et al 2016
(PID.TID 0000.0001) >#
(PID.TID 0000.0001) ># Damien Ringeisen, 2016
(PID.TID 0000.0001) >#
(PID.TID 0000.0001) ># ====================
(PID.TID 0000.0001) ># | Model parameters |
(PID.TID 0000.0001) ># ====================
(PID.TID 0000.0001) >#
(PID.TID 0000.0001) ># Continuous equation parameters
(PID.TID 0000.0001) >#
(PID.TID 0000.0001) >#   tRef            - Reference vertical potential temperature          (deg C)
(PID.TID 0000.0001) >#   sRef            - Reference vertical salinity                         (PSU)
(PID.TID 0000.0001) >#   viscAh          - Horizontal eddy viscosity coefficient             (m^2/s)
(PID.TID 0000.0001) >#   viscAz          - Vertical eddy viscosity coefficient               (m^2/s)
(PID.TID 0000.0001) >#   diffKhT         - Horizontal temperature diffusivity                (m^2/s)
(PID.TID 0000.0001) >#   diffKzT         - Vertical temperature diffusivity                  (m^2/s)
(PID.TID 0000.0001) >#   diffKhS         - Horizontal salt diffusivity                       (m^2/s)
(PID.TID 0000.0001) >#   diffKzS         - Vertical salt diffusivity                         (m^2/s)
(PID.TID 0000.0001) >#   gravity         - Acceleration due to gravity                       (m/s^2)
(PID.TID 0000.0001) >#   rigidLid        - Set to true to use rigid lid
(PID.TID 0000.0001) >#   implicitFreeSurface - Set to true to use implicit free surface
(PID.TID 0000.0001) >#   eosType         - Flag for linear or polynomial equation of state
(PID.TID 0000.0001) >#   momAdvection    - On/Off flag for momentum self transport
(PID.TID 0000.0001) >#   momViscosity    - On/Off flag for momentum mixing
(PID.TID 0000.0001) >#   f0              - Coriolis parameters, set to 0 to ignore coriolis force
(PID.TID 0000.0001) >#   beta            - Coriolis parameters, set to 0 to ignore coriolis force
(PID.TID 0000.0001) >#
(PID.TID 0000.0001) > &PARM01
(PID.TID 0000.0001) > tRef= 24.0,
(PID.TID 0000.0001) > sRef= 34.65,
(PID.TID 0000.0001) > no_slip_sides=.FALSE.,
(PID.TID 0000.0001) > no_slip_bottom=.TRUE.,
(PID.TID 0000.0001) > viscAz=1.93e-5,
(PID.TID 0000.0001) > viscAh=5.E4,
(PID.TID 0000.0001) > diffKhT=0.0,
(PID.TID 0000.0001) > diffKzT=1.46e-5,
(PID.TID 0000.0001) > diffKhS=0.0,
(PID.TID 0000.0001) > diffKzS=1.46e-5,
(PID.TID 0000.0001) > rigidLid=.FALSE.,
(PID.TID 0000.0001) > implicitFreeSurface=.TRUE.,
(PID.TID 0000.0001) > eosType='JMD95Z',
(PID.TID 0000.0001) > saltStepping=.FALSE.,
(PID.TID 0000.0001) > tempStepping=.FALSE.,
(PID.TID 0000.0001) > momStepping=.FALSE.,
(PID.TID 0000.0001) > implicitDiffusion=.TRUE.,
(PID.TID 0000.0001) > implicitViscosity=.TRUE.,
(PID.TID 0000.0001) > allowFreezing=.FALSE.,
(PID.TID 0000.0001) >#- set wrong celsius2K to reproduce old results:
(PID.TID 0000.0001) > celsius2K=273.16,
(PID.TID 0000.0001) > HeatCapacity_Cp = 3986.D0,
(PID.TID 0000.0001) > gravity         = 9.8156,
(PID.TID 0000.0001) > rhoConst        = 1027.D0,
(PID.TID 0000.0001) > rhoConstFresh   = 999.8,
(PID.TID 0000.0001) > useSingleCpuIO=.TRUE.,
(PID.TID 0000.0001) > readBinaryPrec=64,
(PID.TID 0000.0001) > writeBinaryPrec=64,
(PID.TID 0000.0001) > f0=0.,
(PID.TID 0000.0001) > beta=0.,
(PID.TID 0000.0001) > /
(PID.TID 0000.0001) >
(PID.TID 0000.0001) ># Elliptic solver parameters
(PID.TID 0000.0001) >#
(PID.TID 0000.0001) >#   cg2dMaxIters       - Maximum number of 2d solver iterations
(PID.TID 0000.0001) >#   cg2dTargetResidual - Solver target residual
(PID.TID 0000.0001) >#
(PID.TID 0000.0001) > &PARM02
(PID.TID 0000.0001) > cg2dMaxIters=500,
(PID.TID 0000.0001) > cg2dTargetResidual=1.E-12,
(PID.TID 0000.0001) > /
(PID.TID 0000.0001) >
(PID.TID 0000.0001) ># Time stepping parameters
(PID.TID 0000.0001) >#
(PID.TID 0000.0001) >#   startTime         - Integration starting time                (s)
(PID.TID 0000.0001) >#   endTime           - Integration ending time                  (s)
(PID.TID 0000.0001) >#   deltaTMom         - Timestep for momemtum equations          (s)
(PID.TID 0000.0001) >#   deltaTtracer      - Tracer timestep                          (s)
(PID.TID 0000.0001) >#   deltaTClock       - Timestep used as model "clock"           (s)
(PID.TID 0000.0001) >#   abEps             - Adams-Bashforth stabilising factor
(PID.TID 0000.0001) >#   pChkPtFreq        - Frequency of permanent check pointing    (s)
(PID.TID 0000.0001) >#   chkPtFreq         - Frequency of rolling check pointing      (s)
(PID.TID 0000.0001) >#   dumpFreq          - Frequency at which model state is stored (s)
(PID.TID 0000.0001) >#   tauThetaClimRelax - Relaxation to climatology time scale     (s)
(PID.TID 0000.0001) >#   tauSaltClimRelax  - Relaxation to climatology time scale     (s)
(PID.TID 0000.0001) >#
(PID.TID 0000.0001) > &PARM03
(PID.TID 0000.0001) ># for testing use a short integration
(PID.TID 0000.0001) > nIter0=0,
(PID.TID 0000.0001) > nTimeSteps=10,
(PID.TID 0000.0001) ># this is for real experiments
(PID.TID 0000.0001) >#startTime=0.0,
(PID.TID 0000.0001) >#endTime=200,
(PID.TID 0000.0001) > deltaT=0.1,
(PID.TID 0000.0001) > cAdjFreq=0.,
(PID.TID 0000.0001) > abEps=0.1,
(PID.TID 0000.0001) > forcing_In_AB = .FALSE.,
(PID.TID 0000.0001) ># pChkptFreq=36000.,
(PID.TID 0000.0001) ># chkptFreq= 0.,
(PID.TID 0000.0001) ># dumpFreq = 360.,
(PID.TID 0000.0001) > dumpInitAndLast=.FALSE.,
(PID.TID 0000.0001) > monitorFreq=0.1,
(PID.TID 0000.0001) > pickupStrictlyMatch=.FALSE.,
(PID.TID 0000.0001) > /
(PID.TID 0000.0001) >
(PID.TID 0000.0001) ># Gridding parameters
(PID.TID 0000.0001) >#
(PID.TID 0000.0001) >#   usingCartesianGrid      - On/Off flag for cartesian coordinates
(PID.TID 0000.0001) >#   delX                    - Zonal grid spacing         (m)
(PID.TID 0000.0001) >#   delY                    - Meridional grid spacing    (m)
(PID.TID 0000.0001) >#   delZ                    - Vertical grid spacing      (m)
(PID.TID 0000.0001) >#
(PID.TID 0000.0001) > &PARM04
(PID.TID 0000.0001) > usingCartesianGrid=.TRUE.,
(PID.TID 0000.0001) > dXspacing=250.0,
(PID.TID 0000.0001) > dYspacing=250.0,
(PID.TID 0000.0001) > delZ= 200.,
(PID.TID 0000.0001) > /
(PID.TID 0000.0001) >
(PID.TID 0000.0001) ># Input datasets
(PID.TID 0000.0001) >#
(PID.TID 0000.0001) >#   bathyFile       - File containing bathymetry
(PID.TID 0000.0001) >#   hydrogThetaFile - File containing initial potential temperature data
(PID.TID 0000.0001) >#   hydrogSaltFile  - File containing initial salinity data
(PID.TID 0000.0001) >#   zonalWindFile   - File containing zonal wind data
(PID.TID 0000.0001) >#   meridWindFile   - File containing meridional wind data
(PID.TID 0000.0001) >#   thetaClimFile   - File containing theta climatology used for relaxation
(PID.TID 0000.0001) >#   saltClimFile    - File containing salt climatology used for relaxation
(PID.TID 0000.0001) >#
(PID.TID 0000.0001) > &PARM05
(PID.TID 0000.0001) > bathyFile       = 'bathy_DMcomp.bin',
(PID.TID 0000.0001) > /
(PID.TID 0000.0001) 
(PID.TID 0000.0001)  INI_PARMS ; starts to read PARM01
(PID.TID 0000.0001)  INI_PARMS ; read PARM01 : OK
(PID.TID 0000.0001)  INI_PARMS ; starts to read PARM02
(PID.TID 0000.0001)  INI_PARMS ; read PARM02 : OK
(PID.TID 0000.0001)  INI_PARMS ; starts to read PARM03
(PID.TID 0000.0001)  INI_PARMS ; read PARM03 : OK
(PID.TID 0000.0001)  INI_PARMS ; starts to read PARM04
(PID.TID 0000.0001)  INI_PARMS ; read PARM04 : OK
(PID.TID 0000.0001)  INI_PARMS ; starts to read PARM05
(PID.TID 0000.0001)  INI_PARMS ; read PARM05 : OK
(PID.TID 0000.0001)  INI_PARMS: finished reading file "data"
(PID.TID 0000.0001)  PACKAGES_BOOT: opening data.pkg
(PID.TID 0000.0001)  OPEN_COPY_DATA_FILE: opening file data.pkg
(PID.TID 0000.0001) // =======================================================
(PID.TID 0000.0001) // Parameter file "data.pkg"
(PID.TID 0000.0001) // =======================================================
(PID.TID 0000.0001) ># Packages
(PID.TID 0000.0001) > &PACKAGES
(PID.TID 0000.0001) >  useEXF    = .TRUE.,
(PID.TID 0000.0001) >  useSEAICE = .TRUE.,
(PID.TID 0000.0001) >  useOBCS   = .TRUE.,
(PID.TID 0000.0001) >  useDiagnostics = .TRUE.,
(PID.TID 0000.0001) > /
(PID.TID 0000.0001) >
(PID.TID 0000.0001) 
(PID.TID 0000.0001)  PACKAGES_BOOT: finished reading data.pkg
(PID.TID 0000.0001) ** WARNING ** PACKAGES_BOOT: useCAL no longer set to T when using EXF (useEXF=T)
(PID.TID 0000.0001) ** WARNING ** PACKAGES_BOOT:  as it used to be before checkpoint66d (2017/02/13)
(PID.TID 0000.0001)  PACKAGES_BOOT: On/Off package Summary
 --------  pkgs with a standard "usePKG" On/Off switch in "data.pkg":  --------
 pkg/obcs                 compiled   and   used ( useOBCS                  = T )
 pkg/kpp                  compiled but not used ( useKPP                   = F )
 pkg/gmredi               compiled but not used ( useGMRedi                = F )
 pkg/cal                  compiled but not used ( useCAL                   = F )
 pkg/exf                  compiled   and   used ( useEXF                   = T )
 pkg/seaice               compiled   and   used ( useSEAICE                = T )
 pkg/diagnostics          compiled   and   used ( useDiagnostics           = T )
 pkg/mnc                  compiled but not used ( useMNC                   = F )
 -------- pkgs without standard "usePKG" On/Off switch in "data.pkg":  --------
 pkg/generic_advdiff      compiled but not used ( useGAD                   = F )
 pkg/mom_common           compiled but not used ( momStepping              = F )
 pkg/mom_vecinv           compiled but not used ( +vectorInvariantMomentum = F )
 pkg/mom_fluxform         compiled but not used ( & not vectorInvariantMom = F )
 pkg/monitor              compiled   and   used ( monitorFreq > 0.         = T )
 pkg/debug                compiled but not used ( debugMode                = F )
 pkg/rw                   compiled   and   used
 pkg/mdsio                compiled   and   used
(PID.TID 0000.0001)  PACKAGES_BOOT: End of package Summary
(PID.TID 0000.0001) 
(PID.TID 0000.0001) EXF_READPARMS: opening data.exf
(PID.TID 0000.0001)  OPEN_COPY_DATA_FILE: opening file data.exf
(PID.TID 0000.0001) // =======================================================
(PID.TID 0000.0001) // Parameter file "data.exf"
(PID.TID 0000.0001) // =======================================================
(PID.TID 0000.0001) >#
(PID.TID 0000.0001) ># *********************
(PID.TID 0000.0001) ># External Forcing Data
(PID.TID 0000.0001) ># *********************
(PID.TID 0000.0001) > &EXF_NML_01
(PID.TID 0000.0001) >#
(PID.TID 0000.0001) >#useExfCheckRange  = .TRUE.,
(PID.TID 0000.0001) >#repeatPeriod      = 2635200.0,
(PID.TID 0000.0001) > exf_iprec         = 64,
(PID.TID 0000.0001) > exf_monFreq       = 86400000.,
(PID.TID 0000.0001) >#useRelativeWind = .TRUE.,
(PID.TID 0000.0001) >#
(PID.TID 0000.0001) > /
(PID.TID 0000.0001) >
(PID.TID 0000.0001) ># *********************
(PID.TID 0000.0001) > &EXF_NML_02
(PID.TID 0000.0001) >#
(PID.TID 0000.0001) >#ustressstartdate1 = 19781216,
(PID.TID 0000.0001) >#ustressstartdate2 = 180000,
(PID.TID 0000.0001) >#ustressperiod     = 0.0,
(PID.TID 0000.0001) >#
(PID.TID 0000.0001) >#vstressstartdate1 = 19781216,
(PID.TID 0000.0001) >#vstressstartdate2 = 180000,
(PID.TID 0000.0001) >#vstressperiod     = 0.0,
(PID.TID 0000.0001) >#
(PID.TID 0000.0001) ># atempstartdate1   = 19781216,
(PID.TID 0000.0001) ># atempstartdate2   = 180000,
(PID.TID 0000.0001) ># atempperiod       = 0.0,
(PID.TID 0000.0001) >#
(PID.TID 0000.0001) ># aqhstartdate1     = 19781216,
(PID.TID 0000.0001) ># aqhstartdate2     = 180000,
(PID.TID 0000.0001) ># aqhperiod         = 0.0,
(PID.TID 0000.0001) >#
(PID.TID 0000.0001) ># precipstartdate1  = 19781216,
(PID.TID 0000.0001) ># precipstartdate2  = 180000,
(PID.TID 0000.0001) ># precipperiod      = 0.0,
(PID.TID 0000.0001) >#
(PID.TID 0000.0001) ># uwindstartdate1   = 19781216,
(PID.TID 0000.0001) ># uwindstartdate2   = 180000,
(PID.TID 0000.0001) ># uwindperiod       = 0.0,
(PID.TID 0000.0001) >#
(PID.TID 0000.0001) ># vwindstartdate1   = 19781216,
(PID.TID 0000.0001) ># vwindstartdate2   = 180000,
(PID.TID 0000.0001) ># vwindperiod       = 0.0,
(PID.TID 0000.0001) >#
(PID.TID 0000.0001) ># swdownstartdate1  = 19781216,
(PID.TID 0000.0001) ># swdownstartdate2  = 180000,
(PID.TID 0000.0001) ># swdownperiod      = 0.0,
(PID.TID 0000.0001) >#
(PID.TID 0000.0001) ># lwdownstartdate1  = 19781216,
(PID.TID 0000.0001) ># lwdownstartdate2  = 180000,
(PID.TID 0000.0001) ># lwdownperiod      = 0.0,
(PID.TID 0000.0001) >#
(PID.TID 0000.0001) ># climsststartdate1  = 19781216,
(PID.TID 0000.0001) ># climsststartdate2  = 180000,
(PID.TID 0000.0001) ># climsstperiod      = 0.0,
(PID.TID 0000.0001) >#climsstTauRelax    = 2592000.,
(PID.TID 0000.0001) >#
(PID.TID 0000.0001) ># climsssstartdate1  = 19781216,
(PID.TID 0000.0001) ># climsssstartdate2  = 180000,
(PID.TID 0000.0001) ># climsssperiod      = 0.0,
(PID.TID 0000.0001) >#climsssTauRelax    = 2592000.,
(PID.TID 0000.0001) >#
(PID.TID 0000.0001) ># ustressfile       = ' ',
(PID.TID 0000.0001) ># vstressfile       = ' ',
(PID.TID 0000.0001) ># atempfile         = 'tair_4x.bin',
(PID.TID 0000.0001) ># aqhfile           = 'qa70_4x.bin',
(PID.TID 0000.0001) ># uwindfile         = 'windx.bin',
(PID.TID 0000.0001) >##vwindfile         = 'windy.bin',
(PID.TID 0000.0001) ># precipfile        = 'const_00.bin',
(PID.TID 0000.0001) ># lwdownfile        = 'dlw_250.bin',
(PID.TID 0000.0001) ># swdownfile        = 'dsw_100.bin',
(PID.TID 0000.0001) ># runoffFile        = ' '
(PID.TID 0000.0001) ># climsstfile       = 'tocn.bin',
(PID.TID 0000.0001) >##climsssfile       = 'socn.bin',
(PID.TID 0000.0001) > /
(PID.TID 0000.0001) >
(PID.TID 0000.0001) ># *********************
(PID.TID 0000.0001) > &EXF_NML_03
(PID.TID 0000.0001) >#exf_offset_atemp=5;
(PID.TID 0000.0001) > /
(PID.TID 0000.0001) >
(PID.TID 0000.0001) ># *********************
(PID.TID 0000.0001) ># old open64 compiler (4.2.1) cannot skip this namelist to read in the next one;
(PID.TID 0000.0001) ># comment out this namelist (not read).
(PID.TID 0000.0001) >#&EXF_NML_04
(PID.TID 0000.0001) >#&
(PID.TID 0000.0001) >
(PID.TID 0000.0001) ># *********************
(PID.TID 0000.0001) > &EXF_NML_OBCS
(PID.TID 0000.0001) ># obcsNstartdate1   = 20170101,
(PID.TID 0000.0001) ># obcsNstartdate2   = 060000,
(PID.TID 0000.0001) >#obcsNperiod       = 2629800.0,
(PID.TID 0000.0001) > obcsNperiod       = 200.1,
(PID.TID 0000.0001) >#
(PID.TID 0000.0001) ># obcsWstartdate1   = 20170101,
(PID.TID 0000.0001) ># obcsWstartdate2   = 060000,
(PID.TID 0000.0001) >#obcsWperiod       = 2629800.0,
(PID.TID 0000.0001) ># obcsWperiod       = 10,
(PID.TID 0000.0001) >#
(PID.TID 0000.0001) ># obcsEstartdate1   = 20170101,
(PID.TID 0000.0001) ># obcsEstartdate2   = 060000,
(PID.TID 0000.0001) >#obcsEperiod       = 2629800.0,
(PID.TID 0000.0001) ># obcsEperiod       = 10,
(PID.TID 0000.0001) > /
(PID.TID 0000.0001) 
(PID.TID 0000.0001) EXF_READPARMS: reading EXF_NML_01
(PID.TID 0000.0001) EXF_READPARMS: reading EXF_NML_02
(PID.TID 0000.0001) EXF_READPARMS: reading EXF_NML_03
(PID.TID 0000.0001) EXF_READPARMS: reading EXF_NML_OBCS
(PID.TID 0000.0001) EXF_READPARMS: finished reading data.exf
(PID.TID 0000.0001)  OBCS_READPARMS: opening data.obcs
(PID.TID 0000.0001)  OPEN_COPY_DATA_FILE: opening file data.obcs
(PID.TID 0000.0001) // =======================================================
(PID.TID 0000.0001) // Parameter file "data.obcs"
(PID.TID 0000.0001) // =======================================================
(PID.TID 0000.0001) ># ***************
(PID.TID 0000.0001) ># Open boundaries
(PID.TID 0000.0001) ># ***************
(PID.TID 0000.0001) > &OBCS_PARM01
(PID.TID 0000.0001) >#OB_Jsouth =   800*1,
(PID.TID 0000.0001) > OB_Jnorth =   40*-1,
(PID.TID 0000.0001) > OB_Iwest  =   100*1,
(PID.TID 0000.0001) > OB_Ieast  =   100*-1,
(PID.TID 0000.0001) ># This flag check and equalise topography across open boundaries:
(PID.TID 0000.0001) > OBCSfixTopo = .TRUE.,
(PID.TID 0000.0001) > useOBCSprescribe=.TRUE.,
(PID.TID 0000.0001) >#
(PID.TID 0000.0001) > OBCS_Cont_uvice_N=.FALSE.,
(PID.TID 0000.0001) > OBCS_Cont_uvice_S=.FALSE.,
(PID.TID 0000.0001) > OBCS_Cont_uvice_E=.TRUE.,
(PID.TID 0000.0001) > OBCS_Cont_uvice_W=.TRUE.,
(PID.TID 0000.0001) > OBCS_Cont_seaice_N=.TRUE.,
(PID.TID 0000.0001) > OBCS_Cont_seaice_S=.FALSE.,
(PID.TID 0000.0001) > OBCS_Cont_seaice_E=.TRUE.,
(PID.TID 0000.0001) > OBCS_Cont_seaice_W=.TRUE.,
(PID.TID 0000.0001) >#
(PID.TID 0000.0001) ># OBSsFile='OBSs.DMcomp',
(PID.TID 0000.0001) ># OBStFile='OBSt.DMcomp',
(PID.TID 0000.0001) ># OBSuFile='OBSu.DMcomp',
(PID.TID 0000.0001) ># OBSvFile='OBSv.DMcomp',
(PID.TID 0000.0001) ># OBNsFile='OBNs.DMcomp',
(PID.TID 0000.0001) ># OBNtFile='OBNt.DMcomp',
(PID.TID 0000.0001) ># OBNuFile='OBNu.DMcomp',
(PID.TID 0000.0001) ># OBNvFile='OBNv.DMcomp',
(PID.TID 0000.0001) ># OBWsFile='OBWs.DMcomp',
(PID.TID 0000.0001) ># OBWtFile='OBWt.DMcomp',
(PID.TID 0000.0001) ># OBWuFile='OBWu.DMcomp',
(PID.TID 0000.0001) ># OBWvFile='OBWv.DMcomp',
(PID.TID 0000.0001) ># OBEsFile='OBEs.DMcomp',
(PID.TID 0000.0001) ># OBEtFile='OBEt.DMcomp',
(PID.TID 0000.0001) ># OBEuFile='OBEu.DMcomp',
(PID.TID 0000.0001) ># OBEvFile='OBEv.DMcomp',
(PID.TID 0000.0001) >#
(PID.TID 0000.0001) ># OBShFile='OBSh.DMcomp',
(PID.TID 0000.0001) ># OBNhFile='OBNh.DMcomp',
(PID.TID 0000.0001) ># OBEhFile='OBEh.DMcomp',
(PID.TID 0000.0001) ># OBWhFile='OBWh.DMcomp',
(PID.TID 0000.0001) ># OBSaFile='OBSa.DMcomp',
(PID.TID 0000.0001) ># OBNaFile='OBNa.DMcomp',
(PID.TID 0000.0001) ># OBEaFile='OBEa.DMcomp',
(PID.TID 0000.0001) ># OBWaFile='OBWa.DMcomp',
(PID.TID 0000.0001) ># OBSsnFile='OBSsn.DMcomp',
(PID.TID 0000.0001) ># OBNsnFile='OBNsn.DMcomp',
(PID.TID 0000.0001) ># OBEsnFile='OBEsn.DMcomp',
(PID.TID 0000.0001) ># OBWsnFile='OBWsn.DMcomp',
(PID.TID 0000.0001) ># OBSslFile='OBSsl.DMcomp',
(PID.TID 0000.0001) ># OBNslFile='OBNsl.DMcomp',
(PID.TID 0000.0001) ># OBEslFile='OBEsl.DMcomp',
(PID.TID 0000.0001) ># OBWslFile='OBWsl.DMcomp',
(PID.TID 0000.0001) ># OBSuiceFile='OBSuice.DMcomp',
(PID.TID 0000.0001) > OBNuiceFile='OBNuice.DMcomp',
(PID.TID 0000.0001) ># OBEuiceFile='OBEuice.DMcomp',
(PID.TID 0000.0001) ># OBWuiceFile='OBWuice.DMcomp',
(PID.TID 0000.0001) ># OBSviceFile='OBSvice.DMcomp',
(PID.TID 0000.0001) > OBNviceFile='OBNvice.DMcomp',
(PID.TID 0000.0001) ># OBEviceFile='OBEvice.DMcomp',
(PID.TID 0000.0001) ># OBWviceFile='OBWvice.DMcomp',
(PID.TID 0000.0001) > /
(PID.TID 0000.0001) 
(PID.TID 0000.0001)  OBCS_READPARMS: finished reading data.obcs
(PID.TID 0000.0001)  OB_indexUnset = /* unset OB index value (i.e. no OB) */
(PID.TID 0000.0001)                       0
(PID.TID 0000.0001)     ;
(PID.TID 0000.0001)  Northern OB global indices : OB_Jnorth =
(PID.TID 0000.0001)    40 @      100                            /* I =  1: 40 */
(PID.TID 0000.0001)  Southern OB global indices : OB_Jsouth =
(PID.TID 0000.0001)    40 @        0                            /* I =  1: 40 */
(PID.TID 0000.0001)  Eastern  OB global indices : OB_Ieast =
(PID.TID 0000.0001)   100 @       40                            /* J =  1:100 */
(PID.TID 0000.0001)  Western  OB global indices : OB_Iwest =
(PID.TID 0000.0001)   100 @        1                            /* J =  1:100 */
(PID.TID 0000.0001) 
(PID.TID 0000.0001) 
(PID.TID 0000.0001)  SEAICE_READPARMS: opening data.seaice
(PID.TID 0000.0001)  OPEN_COPY_DATA_FILE: opening file data.seaice
(PID.TID 0000.0001) // =======================================================
(PID.TID 0000.0001) // Parameter file "data.seaice"
(PID.TID 0000.0001) // =======================================================
(PID.TID 0000.0001) ># SEAICE parameters
(PID.TID 0000.0001) > &SEAICE_PARM01
(PID.TID 0000.0001) > SEAICErestoreUnderIce=.TRUE.,
(PID.TID 0000.0001) > usePW79thermodynamics=.FALSE.,
(PID.TID 0000.0001) > SEAICE_strength    = 2.750e+04,
(PID.TID 0000.0001) > OCEAN_drag         = 8.1541e-04,
(PID.TID 0000.0001) >
(PID.TID 0000.0001) >### Solvers
(PID.TID 0000.0001) >## Preconditionner
(PID.TID 0000.0001) ># SEAICEpreconNL_Iter= 100,
(PID.TID 0000.0001) ># SEAICEpreconLinIter= 100,
(PID.TID 0000.0001) >
(PID.TID 0000.0001) >## Global
(PID.TID 0000.0001) > SEAICElinearIterMax= 1500,
(PID.TID 0000.0001) ># for tests
(PID.TID 0000.0001) > SEAICEnonlinIterMax= 10,
(PID.TID 0000.0001) ># for real experiments
(PID.TID 0000.0001) >#SEAICEnonlinIterMax= 1500,
(PID.TID 0000.0001) > SEAICEnonLinTol    = 1.E-11,
(PID.TID 0000.0001) > SEAICE_Olx=1,
(PID.TID 0000.0001) > SEAICE_Oly=1,
(PID.TID 0000.0001) >
(PID.TID 0000.0001) >
(PID.TID 0000.0001) >## LSR
(PID.TID 0000.0001) > LSR_ERROR          = 1.E-11,
(PID.TID 0000.0001) ># LSR_mixIniGuess    = 1,
(PID.TID 0000.0001) >
(PID.TID 0000.0001) >## Krylov
(PID.TID 0000.0001) > SEAICEuseKrylov    = .FALSE.,
(PID.TID 0000.0001) >
(PID.TID 0000.0001) >## JNFK
(PID.TID 0000.0001) > SEAICEuseJFNK      = .FALSE.,
(PID.TID 0000.0001) > JFNKres_t          = 1.E-05,
(PID.TID 0000.0001) >
(PID.TID 0000.0001) > SEAICE_no_Slip     = .TRUE.,
(PID.TID 0000.0001) > SEAICEwriteState   = .TRUE.,
(PID.TID 0000.0001) >#SEAICE_monFreq = 0.1,
(PID.TID 0000.0001) > SEAICEADVSCHEME = 33,
(PID.TID 0000.0001) > HeffFile        = 'ice0_heff_DMcomp.bin',
(PID.TID 0000.0001) > AreaFile        = 'ice0_area_DMcomp.bin',
(PID.TID 0000.0001) >#
(PID.TID 0000.0001) > SEAICEpressReplFac = 0.0,
(PID.TID 0000.0001) ># Mohr-Coulomb yield curve (Ip, 1990)
(PID.TID 0000.0001) > SEAICEuseFullMC = .TRUE.
(PID.TID 0000.0001) ># with thes slope parameters
(PID.TID 0000.0001) > SEAICEmcMu=0.7,
(PID.TID 0000.0001) > SEAICE_tensilFac = 0.05,
(PID.TID 0000.0001) > /
(PID.TID 0000.0001) >
(PID.TID 0000.0001) > &SEAICE_PARM03
(PID.TID 0000.0001) > /
(PID.TID 0000.0001) 
(PID.TID 0000.0001)  SEAICE_READPARMS: finished reading data.seaice
(PID.TID 0000.0001)  DIAGNOSTICS_READPARMS: opening data.diagnostics
(PID.TID 0000.0001)  OPEN_COPY_DATA_FILE: opening file data.diagnostics
(PID.TID 0000.0001) // =======================================================
(PID.TID 0000.0001) // Parameter file "data.diagnostics"
(PID.TID 0000.0001) // =======================================================
(PID.TID 0000.0001) ># Diagnostic Package Choices
(PID.TID 0000.0001) >#--------------------
(PID.TID 0000.0001) >#  dumpAtLast (logical): always write output at the end of simulation (default=F)
(PID.TID 0000.0001) >#  diag_mnc   (logical): write to NetCDF files (default=useMNC)
(PID.TID 0000.0001) >#--for each output-stream:
(PID.TID 0000.0001) >#  fileName(n) : prefix of the output file name (max 80c long) for outp.stream n
(PID.TID 0000.0001) >#  frequency(n):< 0 : write snap-shot output every |frequency| seconds
(PID.TID 0000.0001) >#               > 0 : write time-average output every frequency seconds
(PID.TID 0000.0001) >#  timePhase(n)     : write at time = timePhase + multiple of |frequency|
(PID.TID 0000.0001) >#    averagingFreq  : frequency (in s) for periodic averaging interval
(PID.TID 0000.0001) >#    averagingPhase : phase     (in s) for periodic averaging interval
(PID.TID 0000.0001) >#    repeatCycle    : number of averaging intervals in 1 cycle
(PID.TID 0000.0001) >#  levels(:,n) : list of levels to write to file (Notes: declared as REAL)
(PID.TID 0000.0001) >#                when this entry is missing, select all common levels of this list
(PID.TID 0000.0001) >#  fields(:,n) : list of selected diagnostics fields (8.c) in outp.stream
(PID.TID 0000.0001) >#                (see "available_diagnostics.log" file for the full list of diags)
(PID.TID 0000.0001) >#  missing_value(n) : missing value for real-type fields in output file "n"
(PID.TID 0000.0001) >#  fileFlags(n)     : specific code (8c string) for output file "n"
(PID.TID 0000.0001) >#--------------------
(PID.TID 0000.0001) ># This example dumps EXF diagnostics as snapshot after 10 time-steps
(PID.TID 0000.0001) ># Note: EXF air-sea fluxes over Sea-Ice are wrong
(PID.TID 0000.0001) > &DIAGNOSTICS_LIST
(PID.TID 0000.0001) >   dumpAtLast  = .TRUE.,
(PID.TID 0000.0001) >#--
(PID.TID 0000.0001) >#   fields(1:2,1) = 'EXFtaux ','EXFtauy ',
(PID.TID 0000.0001) >#  fields(1:11,1) = 'EXFtaux ','EXFtauy ','EXFqnet ','EXFempmr',
(PID.TID 0000.0001) >#                   'EXFhl   ','EXFhs   ','EXFswnet','EXFlwnet',
(PID.TID 0000.0001) >#                   'EXFuwind','EXFvwind','EXFatemp',
(PID.TID 0000.0001) >#   fileName(1) = 'exfDiag',
(PID.TID 0000.0001) >#   frequency(1) = 1.0,
(PID.TID 0000.0001) >
(PID.TID 0000.0001) >  fields(1:10,2) ='SIsig11 ','SIsig22 ',
(PID.TID 0000.0001) >                  'SIuice  ','SIvice  ',
(PID.TID 0000.0001) >                  'SIarea  ','SIheff  ',
(PID.TID 0000.0001) >                  'SIeps11 ','SIeps22 ',
(PID.TID 0000.0001) >                  'SIsig12 ','SIeps12 ',
(PID.TID 0000.0001) >   fileName(2) = 'iceDiag',
(PID.TID 0000.0001) >  frequency(2) =  0.1,
(PID.TID 0000.0001) ># missing_value(2) = -999.,
(PID.TID 0000.0001) > /
(PID.TID 0000.0001) >
(PID.TID 0000.0001) >#--------------------
(PID.TID 0000.0001) ># Parameter for Diagnostics of per level statistics:
(PID.TID 0000.0001) >#--------------------
(PID.TID 0000.0001) >#  diagSt_mnc (logical): write stat-diags to NetCDF files (default=diag_mnc)
(PID.TID 0000.0001) >#  diagSt_regMaskFile : file containing the region-mask to read-in
(PID.TID 0000.0001) >#  nSetRegMskFile   : number of region-mask sets within the region-mask file
(PID.TID 0000.0001) >#  set_regMask(i)   : region-mask set-index that identifies the region "i"
(PID.TID 0000.0001) >#  val_regMask(i)   : region "i" identifier value in the region mask
(PID.TID 0000.0001) >#--for each output-stream:
(PID.TID 0000.0001) >#  stat_fName(n) : prefix of the output file name (max 80c long) for outp.stream n
(PID.TID 0000.0001) >#  stat_freq(n):< 0 : write snap-shot output every |stat_freq| seconds
(PID.TID 0000.0001) >#               > 0 : write time-average output every stat_freq seconds
(PID.TID 0000.0001) >#  stat_phase(n)    : write at time = stat_phase + multiple of |stat_freq|
(PID.TID 0000.0001) >#  stat_region(:,n) : list of "regions" (default: 1 region only=global)
(PID.TID 0000.0001) >#  stat_fields(:,n) : list of selected diagnostics fields (8.c) in outp.stream n
(PID.TID 0000.0001) >#                (see "available_diagnostics.log" file for the full list of diags)
(PID.TID 0000.0001) >#--------------------
(PID.TID 0000.0001) > &DIAG_STATIS_PARMS
(PID.TID 0000.0001) >#stat_fields(1:12,1) = 'SIarea  ','SIheff  ','SIhsnow ',
(PID.TID 0000.0001) >#                      'oceFWflx','oceSflux','oceQnet ',
(PID.TID 0000.0001) >#                      'SItices ','SIatmFW ','SIatmQnt',
(PID.TID 0000.0001) >#                      'SIempmr ','SIqnet  ','SIqsw   ',
(PID.TID 0000.0001) >#                      'oceQsw  ',
(PID.TID 0000.0001) ># stat_fName(1) = 'iceStDiag',
(PID.TID 0000.0001) >#  stat_freq(1) = 7200.,
(PID.TID 0000.0001) ># stat_phase(1) = 1800.,
(PID.TID 0000.0001) >#stat_fields(1:14,1) = 'SI_Fract','SI_Thick','THETA   ',
(PID.TID 0000.0001) >#                      'SI_Tsrf ','SI_Tice1','SI_Tice2',
(PID.TID 0000.0001) >#                      'SIflx2oc','SIfrw2oc','SIsaltFx',
(PID.TID 0000.0001) >#                      'SIflxAtm','SIfrwAtm','SI_SnowH',
(PID.TID 0000.0001) >#                      'SIuice  ','SIvice  ',
(PID.TID 0000.0001) > /
(PID.TID 0000.0001) 
(PID.TID 0000.0001) S/R DIAGNOSTICS_READPARMS, read namelist "diagnostics_list": start
(PID.TID 0000.0001) S/R DIAGNOSTICS_READPARMS, read namelist "diagnostics_list": OK
(PID.TID 0000.0001) S/R DIAGNOSTICS_READPARMS, read namelist "DIAG_STATIS_PARMS": start
(PID.TID 0000.0001) S/R DIAGNOSTICS_READPARMS, read namelist "DIAG_STATIS_PARMS": OK
(PID.TID 0000.0001)  DIAGNOSTICS_READPARMS: global parameter summary:
(PID.TID 0000.0001)  dumpAtLast = /* always write time-ave diags at the end */
(PID.TID 0000.0001)                   T
(PID.TID 0000.0001)     ;
(PID.TID 0000.0001)  diag_mnc =   /* write NetCDF output files */
(PID.TID 0000.0001)                   F
(PID.TID 0000.0001)     ;
(PID.TID 0000.0001)  useMissingValue = /* put MissingValue where mask = 0 */
(PID.TID 0000.0001)                   F
(PID.TID 0000.0001)     ;
(PID.TID 0000.0001)  diagCG_maxIters = /* max number of iters in diag_cg2d */
(PID.TID 0000.0001)                     500
(PID.TID 0000.0001)     ;
(PID.TID 0000.0001)  diagCG_resTarget = /* residual target for diag_cg2d */
(PID.TID 0000.0001)                 1.000000000000000E-12
(PID.TID 0000.0001)     ;
(PID.TID 0000.0001)  diagCG_pcOffDFac = /* preconditioner off-diagonal factor */
(PID.TID 0000.0001)                 9.611687812379854E-01
(PID.TID 0000.0001)     ;
(PID.TID 0000.0001) -----------------------------------------------------
(PID.TID 0000.0001)  DIAGNOSTICS_READPARMS: active diagnostics summary:
(PID.TID 0000.0001) -----------------------------------------------------
(PID.TID 0000.0001) Creating Output Stream: iceDiag
(PID.TID 0000.0001) Output Frequency:          0.100000 ; Phase:           0.000000
(PID.TID 0000.0001)  Averaging Freq.:          0.100000 , Phase:           0.000000 , Cycle:   1
(PID.TID 0000.0001)  missing value: -9.990000000000E+02
(PID.TID 0000.0001)  Levels:    will be set later
(PID.TID 0000.0001)  Fields:    SIsig11  SIsig22  SIuice   SIvice   SIarea   SIheff   SIeps11  SIeps22  SIsig12  SIeps12
(PID.TID 0000.0001) -----------------------------------------------------
(PID.TID 0000.0001)  DIAGNOSTICS_READPARMS: statistics diags. summary:
(PID.TID 0000.0001) -----------------------------------------------------
(PID.TID 0000.0001) 
(PID.TID 0000.0001) SET_PARMS: done
(PID.TID 0000.0001) Enter INI_VERTICAL_GRID: setInterFDr=    T ; setCenterDr=    F
(PID.TID 0000.0001) %MON XC_max                       =   9.8750000000000E+03
(PID.TID 0000.0001) %MON XC_min                       =   1.2500000000000E+02
(PID.TID 0000.0001) %MON XC_mean                      =   5.0000000000000E+03
(PID.TID 0000.0001) %MON XC_sd                        =   2.8858490951538E+03
(PID.TID 0000.0001) %MON XG_max                       =   9.7500000000000E+03
(PID.TID 0000.0001) %MON XG_min                       =   0.0000000000000E+00
(PID.TID 0000.0001) %MON XG_mean                      =   4.8750000000000E+03
(PID.TID 0000.0001) %MON XG_sd                        =   2.8858490951538E+03
(PID.TID 0000.0001) %MON DXC_max                      =   2.5000000000000E+02
(PID.TID 0000.0001) %MON DXC_min                      =   2.5000000000000E+02
(PID.TID 0000.0001) %MON DXC_mean                     =   2.5000000000000E+02
(PID.TID 0000.0001) %MON DXC_sd                       =   0.0000000000000E+00
(PID.TID 0000.0001) %MON DXF_max                      =   2.5000000000000E+02
(PID.TID 0000.0001) %MON DXF_min                      =   2.5000000000000E+02
(PID.TID 0000.0001) %MON DXF_mean                     =   2.5000000000000E+02
(PID.TID 0000.0001) %MON DXF_sd                       =   0.0000000000000E+00
(PID.TID 0000.0001) %MON DXG_max                      =   2.5000000000000E+02
(PID.TID 0000.0001) %MON DXG_min                      =   2.5000000000000E+02
(PID.TID 0000.0001) %MON DXG_mean                     =   2.5000000000000E+02
(PID.TID 0000.0001) %MON DXG_sd                       =   0.0000000000000E+00
(PID.TID 0000.0001) %MON DXV_max                      =   2.5000000000000E+02
(PID.TID 0000.0001) %MON DXV_min                      =   2.5000000000000E+02
(PID.TID 0000.0001) %MON DXV_mean                     =   2.5000000000000E+02
(PID.TID 0000.0001) %MON DXV_sd                       =   0.0000000000000E+00
(PID.TID 0000.0001) %MON YC_max                       =   2.4875000000000E+04
(PID.TID 0000.0001) %MON YC_min                       =   1.2500000000000E+02
(PID.TID 0000.0001) %MON YC_mean                      =   1.2500000000000E+04
(PID.TID 0000.0001) %MON YC_sd                        =   7.2165175119305E+03
(PID.TID 0000.0001) %MON YG_max                       =   2.4750000000000E+04
(PID.TID 0000.0001) %MON YG_min                       =   0.0000000000000E+00
(PID.TID 0000.0001) %MON YG_mean                      =   1.2375000000000E+04
(PID.TID 0000.0001) %MON YG_sd                        =   7.2165175119305E+03
(PID.TID 0000.0001) %MON DYC_max                      =   2.5000000000000E+02
(PID.TID 0000.0001) %MON DYC_min                      =   2.5000000000000E+02
(PID.TID 0000.0001) %MON DYC_mean                     =   2.5000000000000E+02
(PID.TID 0000.0001) %MON DYC_sd                       =   0.0000000000000E+00
(PID.TID 0000.0001) %MON DYF_max                      =   2.5000000000000E+02
(PID.TID 0000.0001) %MON DYF_min                      =   2.5000000000000E+02
(PID.TID 0000.0001) %MON DYF_mean                     =   2.5000000000000E+02
(PID.TID 0000.0001) %MON DYF_sd                       =   0.0000000000000E+00
(PID.TID 0000.0001) %MON DYG_max                      =   2.5000000000000E+02
(PID.TID 0000.0001) %MON DYG_min                      =   2.5000000000000E+02
(PID.TID 0000.0001) %MON DYG_mean                     =   2.5000000000000E+02
(PID.TID 0000.0001) %MON DYG_sd                       =   0.0000000000000E+00
(PID.TID 0000.0001) %MON DYU_max                      =   2.5000000000000E+02
(PID.TID 0000.0001) %MON DYU_min                      =   2.5000000000000E+02
(PID.TID 0000.0001) %MON DYU_mean                     =   2.5000000000000E+02
(PID.TID 0000.0001) %MON DYU_sd                       =   0.0000000000000E+00
(PID.TID 0000.0001) %MON RA_max                       =   6.2500000000000E+04
(PID.TID 0000.0001) %MON RA_min                       =   6.2500000000000E+04
(PID.TID 0000.0001) %MON RA_mean                      =   6.2500000000000E+04
(PID.TID 0000.0001) %MON RA_sd                        =   0.0000000000000E+00
(PID.TID 0000.0001) %MON RAW_max                      =   6.2500000000000E+04
(PID.TID 0000.0001) %MON RAW_min                      =   6.2500000000000E+04
(PID.TID 0000.0001) %MON RAW_mean                     =   6.2500000000000E+04
(PID.TID 0000.0001) %MON RAW_sd                       =   0.0000000000000E+00
(PID.TID 0000.0001) %MON RAS_max                      =   6.2500000000000E+04
(PID.TID 0000.0001) %MON RAS_min                      =   6.2500000000000E+04
(PID.TID 0000.0001) %MON RAS_mean                     =   6.2500000000000E+04
(PID.TID 0000.0001) %MON RAS_sd                       =   0.0000000000000E+00
(PID.TID 0000.0001) %MON RAZ_max                      =   6.2500000000000E+04
(PID.TID 0000.0001) %MON RAZ_min                      =   6.2500000000000E+04
(PID.TID 0000.0001) %MON RAZ_mean                     =   6.2500000000000E+04
(PID.TID 0000.0001) %MON RAZ_sd                       =   0.0000000000000E+00
(PID.TID 0000.0001) %MON AngleCS_max                  =   1.0000000000000E+00
(PID.TID 0000.0001) %MON AngleCS_min                  =   1.0000000000000E+00
(PID.TID 0000.0001) %MON AngleCS_mean                 =   1.0000000000000E+00
(PID.TID 0000.0001) %MON AngleCS_sd                   =   0.0000000000000E+00
(PID.TID 0000.0001) %MON AngleSN_max                  =   0.0000000000000E+00
(PID.TID 0000.0001) %MON AngleSN_min                  =   0.0000000000000E+00
(PID.TID 0000.0001) %MON AngleSN_mean                 =   0.0000000000000E+00
(PID.TID 0000.0001) %MON AngleSN_sd                   =   0.0000000000000E+00
(PID.TID 0000.0001)  MDS_READ_FIELD: opening global file: bathy_DMcomp.bin
(PID.TID 0000.0001) // =======================================================
(PID.TID 0000.0001) // Field Model R_low (ini_masks_etc)
(PID.TID 0000.0001) // CMIN =         -2.000000000000000E+02
(PID.TID 0000.0001) // CMAX =         -2.000000000000000E+02
(PID.TID 0000.0001) // CINT =          0.000000000000000E+00
(PID.TID 0000.0001) // SYMBOLS (CMIN->CMAX): -abcdefghijklmnopqrstuvwxyz+
(PID.TID 0000.0001) //                  0.0: .
(PID.TID 0000.0001) // RANGE I (Lo:Hi:Step):(    -2:    43:     1)
(PID.TID 0000.0001) // RANGE J (Lo:Hi:Step):(   103:    -2:    -1)
(PID.TID 0000.0001) // RANGE K (Lo:Hi:Step):(   1:   1:   1)
(PID.TID 0000.0001) // =======================================================
(PID.TID 0000.0001) // =======================================================
(PID.TID 0000.0001) // END OF FIELD                                          =
(PID.TID 0000.0001) // =======================================================
(PID.TID 0000.0001) 
(PID.TID 0000.0001) // =======================================================
(PID.TID 0000.0001) // Field Model Ro_surf (ini_masks_etc)
(PID.TID 0000.0001) // CMIN =          1.000000000000000E+32
(PID.TID 0000.0001) // CMAX =         -1.000000000000000E+32
(PID.TID 0000.0001) // CINT =          0.000000000000000E+00
(PID.TID 0000.0001) // SYMBOLS (CMIN->CMAX): -abcdefghijklmnopqrstuvwxyz+
(PID.TID 0000.0001) //                  0.0: .
(PID.TID 0000.0001) // RANGE I (Lo:Hi:Step):(    -2:    43:     1)
(PID.TID 0000.0001) // RANGE J (Lo:Hi:Step):(   103:    -2:    -1)
(PID.TID 0000.0001) // RANGE K (Lo:Hi:Step):(   1:   1:   1)
(PID.TID 0000.0001) // =======================================================
(PID.TID 0000.0001) // =======================================================
(PID.TID 0000.0001) // END OF FIELD                                          =
(PID.TID 0000.0001) // =======================================================
(PID.TID 0000.0001) 
(PID.TID 0000.0001) // =======================================================
(PID.TID 0000.0001) // Field hFacC at iteration          0
(PID.TID 0000.0001) // CMIN =          1.000000000000000E+00
(PID.TID 0000.0001) // CMAX =          1.000000000000000E+00
(PID.TID 0000.0001) // CINT =          0.000000000000000E+00
(PID.TID 0000.0001) // SYMBOLS (CMIN->CMAX): -abcdefghijklmnopqrstuvwxyz+
(PID.TID 0000.0001) //                  0.0: .
(PID.TID 0000.0001) // RANGE I (Lo:Hi:Step):(    -2:    43:     1)
(PID.TID 0000.0001) // RANGE J (Lo:Hi:Step):(   103:    -2:    -1)
(PID.TID 0000.0001) // RANGE K (Lo:Hi:Step):(   1:   1:   1)
(PID.TID 0000.0001) // =======================================================
(PID.TID 0000.0001) // =======================================================
(PID.TID 0000.0001) // END OF FIELD                                          =
(PID.TID 0000.0001) // =======================================================
(PID.TID 0000.0001) 
(PID.TID 0000.0001) // =======================================================
(PID.TID 0000.0001) // Field hFacW at iteration          0
(PID.TID 0000.0001) // CMIN =          1.000000000000000E+00
(PID.TID 0000.0001) // CMAX =          1.000000000000000E+00
(PID.TID 0000.0001) // CINT =          0.000000000000000E+00
(PID.TID 0000.0001) // SYMBOLS (CMIN->CMAX): -abcdefghijklmnopqrstuvwxyz+
(PID.TID 0000.0001) //                  0.0: .
(PID.TID 0000.0001) // RANGE I (Lo:Hi:Step):(    -2:    43:     1)
(PID.TID 0000.0001) // RANGE J (Lo:Hi:Step):(   103:    -2:    -1)
(PID.TID 0000.0001) // RANGE K (Lo:Hi:Step):(   1:   1:   1)
(PID.TID 0000.0001) // =======================================================
(PID.TID 0000.0001) // =======================================================
(PID.TID 0000.0001) // END OF FIELD                                          =
(PID.TID 0000.0001) // =======================================================
(PID.TID 0000.0001) 
(PID.TID 0000.0001) // =======================================================
(PID.TID 0000.0001) // Field hFacS at iteration          0
(PID.TID 0000.0001) // CMIN =          1.000000000000000E+00
(PID.TID 0000.0001) // CMAX =          1.000000000000000E+00
(PID.TID 0000.0001) // CINT =          0.000000000000000E+00
(PID.TID 0000.0001) // SYMBOLS (CMIN->CMAX): -abcdefghijklmnopqrstuvwxyz+
(PID.TID 0000.0001) //                  0.0: .
(PID.TID 0000.0001) // RANGE I (Lo:Hi:Step):(    -2:    43:     1)
(PID.TID 0000.0001) // RANGE J (Lo:Hi:Step):(   103:    -2:    -1)
(PID.TID 0000.0001) // RANGE K (Lo:Hi:Step):(   1:   1:   1)
(PID.TID 0000.0001) // =======================================================
(PID.TID 0000.0001) // =======================================================
(PID.TID 0000.0001) // END OF FIELD                                          =
(PID.TID 0000.0001) // =======================================================
(PID.TID 0000.0001) 
(PID.TID 0000.0001) GAD_INIT_FIXED: GAD_OlMinSize=  0  0  1
(PID.TID 0000.0001) 
(PID.TID 0000.0001) // ===================================
(PID.TID 0000.0001) // GAD parameters :
(PID.TID 0000.0001) // ===================================
(PID.TID 0000.0001) tempAdvScheme =   /* Temp. Horiz.Advection scheme selector */
(PID.TID 0000.0001)                       2
(PID.TID 0000.0001)     ;
(PID.TID 0000.0001) tempVertAdvScheme =   /* Temp. Vert. Advection scheme selector */
(PID.TID 0000.0001)                       2
(PID.TID 0000.0001)     ;
(PID.TID 0000.0001) tempMultiDimAdvec =   /* use Muti-Dim Advec method for Temp */
(PID.TID 0000.0001)                   F
(PID.TID 0000.0001)     ;
(PID.TID 0000.0001) tempSOM_Advection = /* use 2nd Order Moment Advection for Temp */
(PID.TID 0000.0001)                   F
(PID.TID 0000.0001)     ;
(PID.TID 0000.0001) AdamsBashforthGt = /* apply Adams-Bashforth extrapolation on Gt */
(PID.TID 0000.0001)                   F
(PID.TID 0000.0001)     ;
(PID.TID 0000.0001) AdamsBashforth_T = /* apply Adams-Bashforth extrapolation on Temp */
(PID.TID 0000.0001)                   F
(PID.TID 0000.0001)     ;
(PID.TID 0000.0001) saltAdvScheme =   /* Salt. Horiz.advection scheme selector */
(PID.TID 0000.0001)                       2
(PID.TID 0000.0001)     ;
(PID.TID 0000.0001) saltVertAdvScheme =   /* Salt. Vert. Advection scheme selector */
(PID.TID 0000.0001)                       2
(PID.TID 0000.0001)     ;
(PID.TID 0000.0001) saltMultiDimAdvec =   /* use Muti-Dim Advec method for Salt */
(PID.TID 0000.0001)                   F
(PID.TID 0000.0001)     ;
(PID.TID 0000.0001) saltSOM_Advection = /* use 2nd Order Moment Advection for Salt */
(PID.TID 0000.0001)                   F
(PID.TID 0000.0001)     ;
(PID.TID 0000.0001) AdamsBashforthGs = /* apply Adams-Bashforth extrapolation on Gs */
(PID.TID 0000.0001)                   F
(PID.TID 0000.0001)     ;
(PID.TID 0000.0001) AdamsBashforth_S = /* apply Adams-Bashforth extrapolation on Salt */
(PID.TID 0000.0001)                   F
(PID.TID 0000.0001)     ;
(PID.TID 0000.0001) // ===================================
(PID.TID 0000.0001) 
(PID.TID 0000.0001) // =======================================================
(PID.TID 0000.0001) // External forcing (EXF) configuration >>> START <<<
(PID.TID 0000.0001) // =======================================================
(PID.TID 0000.0001) 
(PID.TID 0000.0001)  EXF general parameters:
(PID.TID 0000.0001) 
(PID.TID 0000.0001) exf_iprec = /* exf file precision */
(PID.TID 0000.0001)                      64
(PID.TID 0000.0001)     ;
(PID.TID 0000.0001) useExfYearlyFields = /* add extension _YEAR to input file names */
(PID.TID 0000.0001)                   F
(PID.TID 0000.0001)     ;
(PID.TID 0000.0001) twoDigitYear = /* use 2-digit year extension */
(PID.TID 0000.0001)                   F
(PID.TID 0000.0001)     ;
(PID.TID 0000.0001) useExfCheckRange = /* check for fields range */
(PID.TID 0000.0001)                   T
(PID.TID 0000.0001)     ;
(PID.TID 0000.0001) exf_debugLev = /* select EXF-debug printing level */
(PID.TID 0000.0001)                       2
(PID.TID 0000.0001)     ;
(PID.TID 0000.0001) exf_monFreq  = /* EXF monitor frequency [ s ] */
(PID.TID 0000.0001)                 8.640000000000000E+07
(PID.TID 0000.0001)     ;
(PID.TID 0000.0001) repeatPeriod = /* period for cycling forcing dataset [ s ] */
(PID.TID 0000.0001)                 0.000000000000000E+00
(PID.TID 0000.0001)     ;
(PID.TID 0000.0001) climTempFreeze= /* Minimum climatological temperature [deg.C] */
(PID.TID 0000.0001)                -1.900000000000000E+00
(PID.TID 0000.0001)     ;
(PID.TID 0000.0001) windStressMax = /* Maximum absolute windstress [ Pa ] */
(PID.TID 0000.0001)                 2.000000000000000E+00
(PID.TID 0000.0001)     ;
(PID.TID 0000.0001) stressIsOnCgrid = /* set u,v_stress on Arakawa C-grid */
(PID.TID 0000.0001)                   F
(PID.TID 0000.0001)     ;
(PID.TID 0000.0001) rotateStressOnAgrid = /* rotate u,v_stress on Arakawa A-grid */
(PID.TID 0000.0001)                   F
(PID.TID 0000.0001)     ;
(PID.TID 0000.0001) cen2kel = /* conversion of deg. Centigrade to Kelvin [K] */
(PID.TID 0000.0001)                 2.731500000000000E+02
(PID.TID 0000.0001)     ;
(PID.TID 0000.0001) gravity_mks= /* gravitational acceleration [m/s^2] */
(PID.TID 0000.0001)                 9.810000000000000E+00
(PID.TID 0000.0001)     ;
(PID.TID 0000.0001) atmrho =  /* mean atmospheric density [kg/m^3] */
(PID.TID 0000.0001)                 1.200000000000000E+00
(PID.TID 0000.0001)     ;
(PID.TID 0000.0001) atmcp =  /* mean atmospheric specific heat [J/kg/K] */
(PID.TID 0000.0001)                 1.005000000000000E+03
(PID.TID 0000.0001)     ;
(PID.TID 0000.0001) flamb =  /* latent heat of evaporation [J/kg] */
(PID.TID 0000.0001)                 2.500000000000000E+06
(PID.TID 0000.0001)     ;
(PID.TID 0000.0001) flami =  /* latent heat of pure-ice melting [J/kg] */
(PID.TID 0000.0001)                 3.340000000000000E+05
(PID.TID 0000.0001)     ;
(PID.TID 0000.0001) cvapor_fac = /* const. for Saturation calculation [?] */
(PID.TID 0000.0001)                 6.403800000000000E+05
(PID.TID 0000.0001)     ;
(PID.TID 0000.0001) cvapor_exp = /* const. for Saturation calculation [?] */
(PID.TID 0000.0001)                 5.107400000000000E+03
(PID.TID 0000.0001)     ;
(PID.TID 0000.0001) cvapor_fac_ice= /* const. for Saturation calculation [?] */
(PID.TID 0000.0001)                 1.163780000000000E+07
(PID.TID 0000.0001)     ;
(PID.TID 0000.0001) cvapor_exp_ice= /* const. for Saturation calculation [?] */
(PID.TID 0000.0001)                 5.897800000000000E+03
(PID.TID 0000.0001)     ;
(PID.TID 0000.0001) humid_fac = /* humidity coef. in virtual temp. [(kg/kg)^-1] */
(PID.TID 0000.0001)                 6.060000000000000E-01
(PID.TID 0000.0001)     ;
(PID.TID 0000.0001) gamma_blk = /* adiabatic lapse rate [?] */
(PID.TID 0000.0001)                 1.000000000000000E-02
(PID.TID 0000.0001)     ;
(PID.TID 0000.0001) saltsat = /* reduction of Qsat over salty water [-] */
(PID.TID 0000.0001)                 9.800000000000000E-01
(PID.TID 0000.0001)     ;
(PID.TID 0000.0001) noNegativeEvap = /* prevent negative Evaporation */
(PID.TID 0000.0001)                   F
(PID.TID 0000.0001)     ;
(PID.TID 0000.0001) sstExtrapol = /* extrapolation coeff from lev. 1 & 2 to surf [-] */
(PID.TID 0000.0001)                 0.000000000000000E+00
(PID.TID 0000.0001)     ;
(PID.TID 0000.0001) cDrag_1 = /* coef used in drag calculation [?] */
(PID.TID 0000.0001)                 2.700000000000000E-03
(PID.TID 0000.0001)     ;
(PID.TID 0000.0001) cDrag_2 = /* coef used in drag calculation [?] */
(PID.TID 0000.0001)                 1.420000000000000E-04
(PID.TID 0000.0001)     ;
(PID.TID 0000.0001) cDrag_3 = /* coef used in drag calculation [?] */
(PID.TID 0000.0001)                 7.640000000000000E-05
(PID.TID 0000.0001)     ;
(PID.TID 0000.0001) cStanton_1 = /* coef used in Stanton number calculation [?] */
(PID.TID 0000.0001)                 3.270000000000000E-02
(PID.TID 0000.0001)     ;
(PID.TID 0000.0001) cStanton_2 = /* coef used in Stanton number calculation [?] */
(PID.TID 0000.0001)                 1.800000000000000E-02
(PID.TID 0000.0001)     ;
(PID.TID 0000.0001) cDalton = /* coef used in Dalton number calculation [?] */
(PID.TID 0000.0001)                 3.460000000000000E-02
(PID.TID 0000.0001)     ;
(PID.TID 0000.0001) exf_scal_BulkCdn= /* Drag coefficient scaling factor [-] */
(PID.TID 0000.0001)                 1.000000000000000E+00
(PID.TID 0000.0001)     ;
(PID.TID 0000.0001) zolmin = /* minimum stability parameter [?] */
(PID.TID 0000.0001)                -1.000000000000000E+02
(PID.TID 0000.0001)     ;
(PID.TID 0000.0001) psim_fac = /* coef used in turbulent fluxes calculation [-] */
(PID.TID 0000.0001)                 5.000000000000000E+00
(PID.TID 0000.0001)     ;
(PID.TID 0000.0001) zref =  /* reference height [ m ] */
(PID.TID 0000.0001)                 1.000000000000000E+01
(PID.TID 0000.0001)     ;
(PID.TID 0000.0001) hu =  /* height of mean wind [ m ] */
(PID.TID 0000.0001)                 1.000000000000000E+01
(PID.TID 0000.0001)     ;
(PID.TID 0000.0001) ht =  /* height of mean temperature [ m ] */
(PID.TID 0000.0001)                 2.000000000000000E+00
(PID.TID 0000.0001)     ;
(PID.TID 0000.0001) hq =  /* height of mean spec.humidity [ m ] */
(PID.TID 0000.0001)                 2.000000000000000E+00
(PID.TID 0000.0001)     ;
(PID.TID 0000.0001) uMin = /* minimum wind speed [m/s] */
(PID.TID 0000.0001)                 5.000000000000000E-01
(PID.TID 0000.0001)     ;
(PID.TID 0000.0001) useStabilityFct_overIce= /* transfert Coeffs over sea-ice depend on stability */
(PID.TID 0000.0001)                   F
(PID.TID 0000.0001)     ;
(PID.TID 0000.0001) exf_iceCd = /* drag coefficient over sea-ice (fixed) [-] */
(PID.TID 0000.0001)                 1.630000000000000E-03
(PID.TID 0000.0001)     ;
(PID.TID 0000.0001) exf_iceCe = /* transfert coeff. over sea-ice, for Evap (fixed) [-] */
(PID.TID 0000.0001)                 1.630000000000000E-03
(PID.TID 0000.0001)     ;
(PID.TID 0000.0001) exf_iceCh = /* transfert coeff. over sea-ice, Sens.Heat.(fixed)[-] */
(PID.TID 0000.0001)                 1.630000000000000E-03
(PID.TID 0000.0001)     ;
(PID.TID 0000.0001) exf_albedo =  /* Sea-water albedo [-] */
(PID.TID 0000.0001)                 1.000000000000000E-01
(PID.TID 0000.0001)     ;
(PID.TID 0000.0001) useExfZenAlbedo = /* Sea-water albedo varies with zenith angle */
(PID.TID 0000.0001)                   F
(PID.TID 0000.0001)     ;
(PID.TID 0000.0001) select_ZenAlbedo = /* Sea-water albedo computation method */
(PID.TID 0000.0001)                       0
(PID.TID 0000.0001)     ;
(PID.TID 0000.0001) useExfZenIncoming = /* compute incoming solar radiation */
(PID.TID 0000.0001)                   F
(PID.TID 0000.0001)     ;
(PID.TID 0000.0001) ocean_emissivity = /* longwave ocean-surface emissivity [-] */
(PID.TID 0000.0001)                 9.700176366843034E-01
(PID.TID 0000.0001)     ;
(PID.TID 0000.0001) ice_emissivity = /* longwave seaice emissivity [-] */
(PID.TID 0000.0001)                 9.500000000000000E-01
(PID.TID 0000.0001)     ;
(PID.TID 0000.0001) snow_emissivity = /* longwave snow  emissivity [-] */
(PID.TID 0000.0001)                 9.500000000000000E-01
(PID.TID 0000.0001)     ;
(PID.TID 0000.0001) 
(PID.TID 0000.0001)  EXF main CPP flags:
(PID.TID 0000.0001) 
(PID.TID 0000.0001) // USE_EXF_INTERPOLATION:          NOT defined
(PID.TID 0000.0001) // ALLOW_ATM_TEMP:                 NOT defined
(PID.TID 0000.0001) // ALLOW_ATM_WIND (useAtmWind):    NOT defined
(PID.TID 0000.0001) // ALLOW_DOWNWARD_RADIATION:       NOT defined
(PID.TID 0000.0001) // ALLOW_BULKFORMULAE:             NOT defined
(PID.TID 0000.0001) // EXF_READ_EVAP:                  NOT defined
(PID.TID 0000.0001) // ALLOW_RUNOFF:                   NOT defined
(PID.TID 0000.0001) // ALLOW_SALTFLX:                  NOT defined
(PID.TID 0000.0001) 
(PID.TID 0000.0001) // =======================================================
(PID.TID 0000.0001) // External forcing (EXF) climatology configuration :
(PID.TID 0000.0001) // =======================================================
(PID.TID 0000.0001) 
(PID.TID 0000.0001) // ALLOW_CLIMSST_RELAXATION:       NOT defined
(PID.TID 0000.0001) 
(PID.TID 0000.0001) // ALLOW_CLIMSSS_RELAXATION:       NOT defined
(PID.TID 0000.0001) 
(PID.TID 0000.0001) // =======================================================
(PID.TID 0000.0001) // External forcing (EXF) configuration  >>> END <<<
(PID.TID 0000.0001) // =======================================================
(PID.TID 0000.0001) 
(PID.TID 0000.0001) // =======================================================
(PID.TID 0000.0001) // Seaice configuration (SEAICE_PARM01) >>> START <<<
(PID.TID 0000.0001) // =======================================================
(PID.TID 0000.0001) 
(PID.TID 0000.0001)    Seaice time stepping configuration   > START <
(PID.TID 0000.0001)    ----------------------------------------------
(PID.TID 0000.0001) SEAICE_deltaTtherm= /* thermodynamic timestep */
(PID.TID 0000.0001)                 1.000000000000000E-01
(PID.TID 0000.0001)     ;
(PID.TID 0000.0001) SEAICE_deltaTdyn  = /* dynamic timestep */
(PID.TID 0000.0001)                 1.000000000000000E-01
(PID.TID 0000.0001)     ;
(PID.TID 0000.0001) SEAICEuseBDF2  = /* use backw. differencing for mom. eq. */
(PID.TID 0000.0001)                   F
(PID.TID 0000.0001)     ;
(PID.TID 0000.0001) SEAICEupdateOceanStress= /* update Ocean surf. stress */
(PID.TID 0000.0001)                   T
(PID.TID 0000.0001)     ;
(PID.TID 0000.0001) SEAICErestoreUnderIce  = /* restore T and S under ice */
(PID.TID 0000.0001)                   T
(PID.TID 0000.0001)     ;
(PID.TID 0000.0001) 
(PID.TID 0000.0001)    Seaice dynamics configuration   > START <
(PID.TID 0000.0001)    ------------------------------------------
(PID.TID 0000.0001) SEAICEuseDYNAMICS = /* use dynamics */
(PID.TID 0000.0001)                   T
(PID.TID 0000.0001)     ;
(PID.TID 0000.0001) model grid type   = /* type of sea ice model grid */
(PID.TID 0000.0001)               'C-GRID'
(PID.TID 0000.0001)     ;
(PID.TID 0000.0001) SEAICEuseStrImpCpl = /* use strongly implicit coupling */
(PID.TID 0000.0001)                   F
(PID.TID 0000.0001)     ;
(PID.TID 0000.0001) SEAICEusePicardAsPrecon = /* Picard as preconditioner */
(PID.TID 0000.0001)                   F
(PID.TID 0000.0001)     ;
(PID.TID 0000.0001) SEAICEuseLSR      = /* use default Picard-LSR solver */
(PID.TID 0000.0001)                   T
(PID.TID 0000.0001)     ;
(PID.TID 0000.0001) SEAICEuseKrylov   = /* use Picard-Krylov solver */
(PID.TID 0000.0001)                   F
(PID.TID 0000.0001)     ;
(PID.TID 0000.0001) SEAICEuseEVP      = /* use EVP solver rather than LSR */
(PID.TID 0000.0001)                   F
(PID.TID 0000.0001)     ;
(PID.TID 0000.0001) SEAICEuseJFNK     = /* use JFNK solver */
(PID.TID 0000.0001)                   F
(PID.TID 0000.0001)     ;
(PID.TID 0000.0001) OCEAN_drag        = /* air-ocean drag coefficient */
(PID.TID 0000.0001)                 8.154100000000000E-04
(PID.TID 0000.0001)     ;
(PID.TID 0000.0001) SEAICE_drag       = /* air-ice drag coefficient */
(PID.TID 0000.0001)                 1.000000000000000E-03
(PID.TID 0000.0001)     ;
(PID.TID 0000.0001) SEAICE_drag_south      = /* Southern Ocean SEAICE_drag */
(PID.TID 0000.0001)                 1.000000000000000E-03
(PID.TID 0000.0001)     ;
(PID.TID 0000.0001) SEAICE_waterDrag  = /* water-ice drag */
(PID.TID 0000.0001)                 5.500000000000000E-03
(PID.TID 0000.0001)     ;
(PID.TID 0000.0001) SEAICE_waterDrag_south = /* Southern Ocean waterDrag */
(PID.TID 0000.0001)                 5.500000000000000E-03
(PID.TID 0000.0001)     ;
(PID.TID 0000.0001) SEAICEuseTilt     = /* include surface tilt in dyna. */
(PID.TID 0000.0001)                   T
(PID.TID 0000.0001)     ;
(PID.TID 0000.0001) SEAICEuseTEM      = /* use truncated ellipse rheology */
(PID.TID 0000.0001)                   F
(PID.TID 0000.0001)     ;
(PID.TID 0000.0001) SEAICE_strength   = /* sea-ice strength Pstar */
(PID.TID 0000.0001)                 2.750000000000000E+04
(PID.TID 0000.0001)     ;
(PID.TID 0000.0001) SEAICE_cStar      = /* sea-ice strength parameter cStar */
(PID.TID 0000.0001)                 2.000000000000000E+01
(PID.TID 0000.0001)     ;
(PID.TID 0000.0001) SEAICEpressReplFac= /* press. replacement method factor */
(PID.TID 0000.0001)                 0.000000000000000E+00
(PID.TID 0000.0001)     ;
(PID.TID 0000.0001) SEAICE_tensilFac  = /* sea-ice tensile strength factor */
(PID.TID 0000.0001)                 5.000000000000000E-02
(PID.TID 0000.0001)     ;
(PID.TID 0000.0001) SEAICE_tensilDepth= /* crit. depth for tensile strength */
(PID.TID 0000.0001)                 0.000000000000000E+00
(PID.TID 0000.0001)     ;
(PID.TID 0000.0001) SEAICEpresH0   = /* sea-ice strength Heff threshold */
(PID.TID 0000.0001)                 1.000000000000000E+00
(PID.TID 0000.0001)     ;
(PID.TID 0000.0001) SEAICEpresPow0 = /* exponent for Heff<SEAICEpresH0 */
(PID.TID 0000.0001)                       1
(PID.TID 0000.0001)     ;
(PID.TID 0000.0001) SEAICEpresPow1 = /* exponent for Heff>SEAICEpresH0 */
(PID.TID 0000.0001)                       1
(PID.TID 0000.0001)     ;
(PID.TID 0000.0001) SEAICEetaZmethod = /* method computing eta at Z-point */
(PID.TID 0000.0001)                       3
(PID.TID 0000.0001)     ;
(PID.TID 0000.0001) SEAICE_zetaMin    = /* lower bound for viscosity */
(PID.TID 0000.0001)                 0.000000000000000E+00
(PID.TID 0000.0001)     ;
(PID.TID 0000.0001) SEAICE_eccen    = /* elliptical yield curve eccent */
(PID.TID 0000.0001)                 2.000000000000000E+00
(PID.TID 0000.0001)     ;
(PID.TID 0000.0001) SEAICEstressFactor    = /* wind stress scaling factor */
(PID.TID 0000.0001)                 1.000000000000000E+00
(PID.TID 0000.0001)     ;
(PID.TID 0000.0001) SEAICE_airTurnAngle    = /* air-ice turning angle */
(PID.TID 0000.0001)                 0.000000000000000E+00
(PID.TID 0000.0001)     ;
(PID.TID 0000.0001) SEAICE_waterTurnAngle  = /* ice-water turning angle */
(PID.TID 0000.0001)                 0.000000000000000E+00
(PID.TID 0000.0001)     ;
(PID.TID 0000.0001) SEAICEuseMetricTerms = /* use metric terms */
(PID.TID 0000.0001)                   T
(PID.TID 0000.0001)     ;
(PID.TID 0000.0001) SEAICE_no_slip    = /* no slip boundary conditions */
(PID.TID 0000.0001)                   T
(PID.TID 0000.0001)     ;
(PID.TID 0000.0001) SEAICE_2ndOrderBC = /* 2nd order no slip boundary conditions */
(PID.TID 0000.0001)                   F
(PID.TID 0000.0001)     ;
(PID.TID 0000.0001) SEAICE_clipVeloctities = /* impose max. vels. */
(PID.TID 0000.0001)                   F
(PID.TID 0000.0001)     ;
(PID.TID 0000.0001) useHB87stressCoupling  = /* altern. ice-ocean stress */
(PID.TID 0000.0001)                   F
(PID.TID 0000.0001)     ;
(PID.TID 0000.0001) SEAICEscaleSurfStress  = /* scale atm. and ocean-surface stress with AREA */
(PID.TID 0000.0001)                   T
(PID.TID 0000.0001)     ;
(PID.TID 0000.0001) SEAICE_maskRHS    = /* mask RHS of solver */
(PID.TID 0000.0001)                   F
(PID.TID 0000.0001)     ;
(PID.TID 0000.0001) SEAICEaddSnowMass = /* add snow mass to seaiceMassC/U/V */
(PID.TID 0000.0001)                   T
(PID.TID 0000.0001)     ;
(PID.TID 0000.0001) LSR_mixIniGuess = /* mix free-drift sol. into LSR initial Guess */
(PID.TID 0000.0001)                      -1
(PID.TID 0000.0001)     ;
(PID.TID 0000.0001) SEAICE_LSRrelaxU  = /* LSR solver: relaxation parameter */
(PID.TID 0000.0001)                 9.500000000000000E-01
(PID.TID 0000.0001)     ;
(PID.TID 0000.0001) SEAICE_LSRrelaxV  = /* LSR solver: relaxation parameter */
(PID.TID 0000.0001)                 9.500000000000000E-01
(PID.TID 0000.0001)     ;
(PID.TID 0000.0001) LSR_ERROR         = /* sets accuracy of LSR solver */
(PID.TID 0000.0001)                 9.999999999999999E-12
(PID.TID 0000.0001)     ;
(PID.TID 0000.0001) SOLV_NCHECK       = /* test interval for LSR solver */
(PID.TID 0000.0001)                       2
(PID.TID 0000.0001)     ;
(PID.TID 0000.0001) SEAICEuseMultiTileSolver = /* use full domain tri-diag solver */
(PID.TID 0000.0001)                   F
(PID.TID 0000.0001)     ;
(PID.TID 0000.0001) SEAICE_OLx = /* overlap for LSR/preconditioner */
(PID.TID 0000.0001)                       1
(PID.TID 0000.0001)     ;
(PID.TID 0000.0001) SEAICE_OLy = /* overlap for LSR/preconditioner */
(PID.TID 0000.0001)                       1
(PID.TID 0000.0001)     ;
(PID.TID 0000.0001) SEAICEnonLinIterMax = /* max. number of nonlinear solver steps */
(PID.TID 0000.0001)                      10
(PID.TID 0000.0001)     ;
(PID.TID 0000.0001) SEAICElinearIterMax = /* max. number of linear solver steps */
(PID.TID 0000.0001)                    1500
(PID.TID 0000.0001)     ;
(PID.TID 0000.0001) SEAICEnonLinTol     = /* non-linear solver tolerance */
(PID.TID 0000.0001)                 9.999999999999999E-12
(PID.TID 0000.0001)     ;
(PID.TID 0000.0001) 
(PID.TID 0000.0001)    Seaice advection diffusion config,   > START <
(PID.TID 0000.0001)    -----------------------------------------------
(PID.TID 0000.0001) SEAICEmomAdvection = /* advect sea ice momentum */
(PID.TID 0000.0001)                   F
(PID.TID 0000.0001)     ;
(PID.TID 0000.0001) SEAICEadvHeff = /* advect effective ice thickness */
(PID.TID 0000.0001)                   T
(PID.TID 0000.0001)     ;
(PID.TID 0000.0001) SEAICEadvArea = /* advect fractional ice area */
(PID.TID 0000.0001)                   T
(PID.TID 0000.0001)     ;
(PID.TID 0000.0001) SEAICEadvSnow = /* advect snow layer together with ice */
(PID.TID 0000.0001)                   T
(PID.TID 0000.0001)     ;
(PID.TID 0000.0001) SEAICEadvScheme   = /* advection scheme for ice */
(PID.TID 0000.0001)                      33
(PID.TID 0000.0001)     ;
(PID.TID 0000.0001) SEAICEadvSchArea   = /* advection scheme for area */
(PID.TID 0000.0001)                      33
(PID.TID 0000.0001)     ;
(PID.TID 0000.0001) SEAICEadvSchHeff   = /* advection scheme for thickness */
(PID.TID 0000.0001)                      33
(PID.TID 0000.0001)     ;
(PID.TID 0000.0001) SEAICEadvSchSnow   = /* advection scheme for snow */
(PID.TID 0000.0001)                      33
(PID.TID 0000.0001)     ;
(PID.TID 0000.0001) SEAICEdiffKhArea   = /* diffusivity (m^2/s) for area */
(PID.TID 0000.0001)                 0.000000000000000E+00
(PID.TID 0000.0001)     ;
(PID.TID 0000.0001) SEAICEdiffKhHeff   = /* diffusivity (m^2/s) for heff */
(PID.TID 0000.0001)                 0.000000000000000E+00
(PID.TID 0000.0001)     ;
(PID.TID 0000.0001) SEAICEdiffKhSnow   = /* diffusivity (m^2/s) for snow */
(PID.TID 0000.0001)                 0.000000000000000E+00
(PID.TID 0000.0001)     ;
(PID.TID 0000.0001) DIFF1             = /* parameter used in advect.F [m/s] */
(PID.TID 0000.0001)                 0.000000000000000E+00
(PID.TID 0000.0001)     ;
(PID.TID 0000.0001) 
(PID.TID 0000.0001)    Seaice thermodynamics configuration   > START <
(PID.TID 0000.0001)    -----------------------------------------------
(PID.TID 0000.0001) SEAICE_rhoIce     = /* density of sea ice (kg/m3) */
(PID.TID 0000.0001)                 9.100000000000000E+02
(PID.TID 0000.0001)     ;
(PID.TID 0000.0001) SEAICE_rhoSnow    = /* density of snow (kg/m3) */
(PID.TID 0000.0001)                 3.300000000000000E+02
(PID.TID 0000.0001)     ;
(PID.TID 0000.0001) SEAICE_rhoAir     = /* density of air (kg/m3) */
(PID.TID 0000.0001)                 1.200000000000000E+00
(PID.TID 0000.0001)     ;
(PID.TID 0000.0001) usePW79thermodynamics  = /* default 0-layer TD */
(PID.TID 0000.0001)                   F
(PID.TID 0000.0001)     ;
(PID.TID 0000.0001)    pkg/seaice thermodynamics is OFF
(PID.TID 0000.0001) 
(PID.TID 0000.0001)    Seaice initialization and IO config.,   > START <
(PID.TID 0000.0001)    -------------------------------------------------
(PID.TID 0000.0001) SEAICE_initialHEFF= /* initial sea-ice thickness */
(PID.TID 0000.0001)                 0.000000000000000E+00
(PID.TID 0000.0001)     ;
(PID.TID 0000.0001) AreaFile = /* Initial ice concentration File */
(PID.TID 0000.0001)               'ice0_area_DMcomp.bin'
(PID.TID 0000.0001)     ;
(PID.TID 0000.0001) HeffFile = /* Initial effective ice thickness File */
(PID.TID 0000.0001)               'ice0_heff_DMcomp.bin'
(PID.TID 0000.0001)     ;
(PID.TID 0000.0001) HsnowFile = /* Initial snow thickness File */
(PID.TID 0000.0001)               ''
(PID.TID 0000.0001)     ;
(PID.TID 0000.0001) uIceFile = /* Initial U-ice velocity File */
(PID.TID 0000.0001)               ''
(PID.TID 0000.0001)     ;
(PID.TID 0000.0001) vIceFile = /* Initial V-ice velocity File */
(PID.TID 0000.0001)               ''
(PID.TID 0000.0001)     ;
(PID.TID 0000.0001) SEAICEwriteState  = /* write sea ice state to file */
(PID.TID 0000.0001)                   T
(PID.TID 0000.0001)     ;
(PID.TID 0000.0001) SEAICE_monFreq  = /* monitor frequency */
(PID.TID 0000.0001)                 1.000000000000000E-01
(PID.TID 0000.0001)     ;
(PID.TID 0000.0001) SEAICE_dumpFreq   = /* dump frequency */
(PID.TID 0000.0001)                 0.000000000000000E+00
(PID.TID 0000.0001)     ;
(PID.TID 0000.0001) SEAICE_taveFreq   = /* time-averaging frequency */
(PID.TID 0000.0001)                 0.000000000000000E+00
(PID.TID 0000.0001)     ;
(PID.TID 0000.0001) SEAICE_mon_stdio  = /* write monitor to std-outp */
(PID.TID 0000.0001)                   T
(PID.TID 0000.0001)     ;
(PID.TID 0000.0001) SEAICE_dump_mdsio = /* write snap-shot   using MDSIO */
(PID.TID 0000.0001)                   T
(PID.TID 0000.0001)     ;
(PID.TID 0000.0001) SEAICE_tave_mdsio = /* write TimeAverage using MDSIO */
(PID.TID 0000.0001)                   T
(PID.TID 0000.0001)     ;
(PID.TID 0000.0001) SEAICE_mon_mnc    = /* write monitor to netcdf file */
(PID.TID 0000.0001)                   F
(PID.TID 0000.0001)     ;
(PID.TID 0000.0001) SEAICE_dump_mnc   = /* write snap-shot   using MNC */
(PID.TID 0000.0001)                   F
(PID.TID 0000.0001)     ;
(PID.TID 0000.0001) SEAICE_tave_mnc   = /* write TimeAverage using MNC */
(PID.TID 0000.0001)                   F
(PID.TID 0000.0001)     ;
(PID.TID 0000.0001) 
(PID.TID 0000.0001)    Seaice regularization numbers,   > START <
(PID.TID 0000.0001)    -----------------------------------------------
(PID.TID 0000.0001) SEAICE_deltaMin   = /* reduce singularities in Delta */
(PID.TID 0000.0001)                 1.000000000000000E-10
(PID.TID 0000.0001)     ;
(PID.TID 0000.0001) SEAICE_EPS        = /* small number */
(PID.TID 0000.0001)                 1.000000000000000E-10
(PID.TID 0000.0001)     ;
(PID.TID 0000.0001) SEAICE_EPS_SQ     = /* small number squared */
(PID.TID 0000.0001)                 1.000000000000000E-20
(PID.TID 0000.0001)     ;
(PID.TID 0000.0001) SEAICE_area_reg   = /* reduce derivative singularities */
(PID.TID 0000.0001)                 1.000000000000000E-05
(PID.TID 0000.0001)     ;
(PID.TID 0000.0001) SEAICE_hice_reg   = /* reduce derivative singularities */
(PID.TID 0000.0001)                 5.000000000000000E-02
(PID.TID 0000.0001)     ;
(PID.TID 0000.0001) SEAICE_area_floor = /* reduce derivative singularities */
(PID.TID 0000.0001)                 1.000000000000000E-05
(PID.TID 0000.0001)     ;
(PID.TID 0000.0001) 
(PID.TID 0000.0001) // =======================================================
(PID.TID 0000.0001) // Seaice configuration (SEAICE_PARM01) >>> END <<<
(PID.TID 0000.0001) // =======================================================
(PID.TID 0000.0001) 
(PID.TID 0000.0001) ------------------------------------------------------------
(PID.TID 0000.0001) DIAGNOSTICS_SET_LEVELS: done
(PID.TID 0000.0001)  Total Nb of available Diagnostics: ndiagt=   221
(PID.TID 0000.0001)  write list of available Diagnostics to file: available_diagnostics.log
(PID.TID 0000.0001) SETDIAG: Allocate  1 x  1 Levels for Diagnostic #   216 SIsig11
(PID.TID 0000.0001) SETDIAG: Allocate  1 x  1 Levels for Diagnostic #   217 SIsig22
(PID.TID 0000.0001) SETDIAG: Allocate  1 x  1 Levels for Diagnostic #   155 SIuice
(PID.TID 0000.0001) SETDIAG: Allocate  1 x  1 Levels for Diagnostic #   156 SIvice
(PID.TID 0000.0001) SETDIAG: Allocate  1 x  1 Levels for Diagnostic #   146 SIarea
(PID.TID 0000.0001) SETDIAG: Allocate  1 x  1 Levels for Diagnostic #   149 SIheff
(PID.TID 0000.0001) SETDIAG: Allocate  1 x  1 Levels for Diagnostic #   219 SIeps11
(PID.TID 0000.0001) SETDIAG: Allocate  1 x  1 Levels for Diagnostic #   220 SIeps22
(PID.TID 0000.0001) SETDIAG: Allocate  1 x  1 Levels for Diagnostic #   218 SIsig12
(PID.TID 0000.0001) SETDIAG: Allocate  1 x  1 Levels for Diagnostic #   221 SIeps12
(PID.TID 0000.0001)   space allocated for all diagnostics:      10 levels
(PID.TID 0000.0001)   set mate pointer for diag #   155  SIuice   , Parms: UU      M1 , mate:   156
(PID.TID 0000.0001)   set mate pointer for diag #   156  SIvice   , Parms: VV      M1 , mate:   155
(PID.TID 0000.0001) DIAGNOSTICS_SET_POINTERS: Set levels for Outp.Stream: iceDiag
(PID.TID 0000.0001)  Levels:       1.
(PID.TID 0000.0001) DIAGNOSTICS_SET_POINTERS: done
(PID.TID 0000.0001) ------------------------------------------------------------
(PID.TID 0000.0001) DIAGSTATS_SET_REGIONS: define no region
(PID.TID 0000.0001) ------------------------------------------------------------
(PID.TID 0000.0001)   space allocated for all stats-diags:       0 levels
(PID.TID 0000.0001) DIAGSTATS_SET_POINTERS: done
(PID.TID 0000.0001) ------------------------------------------------------------
(PID.TID 0000.0001) %MON fCori_max                    =   0.0000000000000E+00
(PID.TID 0000.0001) %MON fCori_min                    =   0.0000000000000E+00
(PID.TID 0000.0001) %MON fCori_mean                   =   0.0000000000000E+00
(PID.TID 0000.0001) %MON fCori_sd                     =   0.0000000000000E+00
(PID.TID 0000.0001) %MON fCoriG_max                   =   0.0000000000000E+00
(PID.TID 0000.0001) %MON fCoriG_min                   =   0.0000000000000E+00
(PID.TID 0000.0001) %MON fCoriG_mean                  =   0.0000000000000E+00
(PID.TID 0000.0001) %MON fCoriG_sd                    =   0.0000000000000E+00
(PID.TID 0000.0001) %MON fCoriCos_max                 =   0.0000000000000E+00
(PID.TID 0000.0001) %MON fCoriCos_min                 =   0.0000000000000E+00
(PID.TID 0000.0001) %MON fCoriCos_mean                =   0.0000000000000E+00
(PID.TID 0000.0001) %MON fCoriCos_sd                  =   0.0000000000000E+00
(PID.TID 0000.0001) INI_CG2D: CG2D normalisation factor =  5.0000000000000001E-03
(PID.TID 0000.0001) 
(PID.TID 0000.0001) // =======================================================
(PID.TID 0000.0001) // Model configuration
(PID.TID 0000.0001) // =======================================================
(PID.TID 0000.0001) //
(PID.TID 0000.0001) // "Physical" paramters ( PARM01 in namelist )
(PID.TID 0000.0001) //
(PID.TID 0000.0001) buoyancyRelation = /* Type of relation to get Buoyancy */
(PID.TID 0000.0001)               'OCEANIC'
(PID.TID 0000.0001)     ;
(PID.TID 0000.0001) fluidIsAir   =  /* fluid major constituent is Air */
(PID.TID 0000.0001)                   F
(PID.TID 0000.0001)     ;
(PID.TID 0000.0001) fluidIsWater =  /* fluid major constituent is Water */
(PID.TID 0000.0001)                   T
(PID.TID 0000.0001)     ;
(PID.TID 0000.0001) usingPCoords =  /* use p (or p*) vertical coordinate */
(PID.TID 0000.0001)                   F
(PID.TID 0000.0001)     ;
(PID.TID 0000.0001) usingZCoords =  /* use z (or z*) vertical coordinate */
(PID.TID 0000.0001)                   T
(PID.TID 0000.0001)     ;
(PID.TID 0000.0001) tRef =   /* Reference temperature profile ( oC or K ) */
(PID.TID 0000.0001)                 2.400000000000000E+01       /* K =  1 */
(PID.TID 0000.0001)     ;
(PID.TID 0000.0001) sRef =   /* Reference salinity profile ( psu ) */
(PID.TID 0000.0001)                 3.465000000000000E+01       /* K =  1 */
(PID.TID 0000.0001)     ;
(PID.TID 0000.0001) useStrainTensionVisc= /* Use StrainTension Form of Viscous Operator */
(PID.TID 0000.0001)                   F
(PID.TID 0000.0001)     ;
(PID.TID 0000.0001) useVariableVisc = /* Use variable horizontal viscosity */
(PID.TID 0000.0001)                   F
(PID.TID 0000.0001)     ;
(PID.TID 0000.0001) useHarmonicVisc = /* Use harmonic horizontal viscosity */
(PID.TID 0000.0001)                   F
(PID.TID 0000.0001)     ;
(PID.TID 0000.0001) useBiharmonicVisc= /* Use biharmonic horiz.  viscosity */
(PID.TID 0000.0001)                   F
(PID.TID 0000.0001)     ;
(PID.TID 0000.0001) useSmag3D = /* Use isotropic 3-D Smagorinsky viscosity */
(PID.TID 0000.0001)                   F
(PID.TID 0000.0001)     ;
(PID.TID 0000.0001) viscAh  =   /* Lateral harmonic viscosity ( m^2/s ) */
(PID.TID 0000.0001)                 5.000000000000000E+04
(PID.TID 0000.0001)     ;
(PID.TID 0000.0001) viscA4  =   /* Lateral biharmonic viscosity ( m^4/s ) */
(PID.TID 0000.0001)                 0.000000000000000E+00
(PID.TID 0000.0001)     ;
(PID.TID 0000.0001) no_slip_sides =  /* Viscous BCs: No-slip sides */
(PID.TID 0000.0001)                   F
(PID.TID 0000.0001)     ;
(PID.TID 0000.0001) sideDragFactor = /* side-drag scaling factor (non-dim) */
(PID.TID 0000.0001)                 2.000000000000000E+00
(PID.TID 0000.0001)     ;
(PID.TID 0000.0001) viscArNr = /* vertical profile of vertical viscosity ( m^2/s )*/
(PID.TID 0000.0001)                 1.930000000000000E-05       /* K =  1 */
(PID.TID 0000.0001)     ;
(PID.TID 0000.0001) no_slip_bottom =  /* Viscous BCs: No-slip bottom */
(PID.TID 0000.0001)                   T
(PID.TID 0000.0001)     ;
(PID.TID 0000.0001) bottomVisc_pCell = /* Partial-cell in bottom Visc. BC */
(PID.TID 0000.0001)                   F
(PID.TID 0000.0001)     ;
(PID.TID 0000.0001) bottomDragLinear = /* linear bottom-drag coefficient ( m/s ) */
(PID.TID 0000.0001)                 0.000000000000000E+00
(PID.TID 0000.0001)     ;
(PID.TID 0000.0001) bottomDragQuadratic = /* quadratic bottom-drag coefficient (-) */
(PID.TID 0000.0001)                 0.000000000000000E+00
(PID.TID 0000.0001)     ;
(PID.TID 0000.0001) selectBotDragQuadr = /* select quadratic bottom drag options */
(PID.TID 0000.0001)                      -1
(PID.TID 0000.0001)     ;
(PID.TID 0000.0001) diffKhT =   /* Laplacian diffusion of heat laterally ( m^2/s ) */
(PID.TID 0000.0001)                 0.000000000000000E+00
(PID.TID 0000.0001)     ;
(PID.TID 0000.0001) diffK4T =   /* Biharmonic diffusion of heat laterally ( m^4/s ) */
(PID.TID 0000.0001)                 0.000000000000000E+00
(PID.TID 0000.0001)     ;
(PID.TID 0000.0001) diffKhS =   /* Laplacian diffusion of salt laterally ( m^2/s ) */
(PID.TID 0000.0001)                 0.000000000000000E+00
(PID.TID 0000.0001)     ;
(PID.TID 0000.0001) diffK4S =   /* Biharmonic diffusion of salt laterally ( m^4/s ) */
(PID.TID 0000.0001)                 0.000000000000000E+00
(PID.TID 0000.0001)     ;
(PID.TID 0000.0001) diffKrNrT = /* vertical profile of vertical diffusion of Temp ( m^2/s )*/
(PID.TID 0000.0001)                 1.460000000000000E-05       /* K =  1 */
[...]
(PID.TID 0000.0001) %MON dynstat_wvel_sd              =   0.0000000000000E+00
(PID.TID 0000.0001) %MON dynstat_wvel_del2            =   0.0000000000000E+00
(PID.TID 0000.0001) %MON dynstat_theta_max            =   2.4000000000000E+01
(PID.TID 0000.0001) %MON dynstat_theta_min            =   2.4000000000000E+01
(PID.TID 0000.0001) %MON dynstat_theta_mean           =   2.4000000000000E+01
(PID.TID 0000.0001) %MON dynstat_theta_sd             =   0.0000000000000E+00
(PID.TID 0000.0001) %MON dynstat_theta_del2           =   0.0000000000000E+00
(PID.TID 0000.0001) %MON dynstat_salt_max             =   3.4650000000000E+01
(PID.TID 0000.0001) %MON dynstat_salt_min             =   3.4650000000000E+01
(PID.TID 0000.0001) %MON dynstat_salt_mean            =   3.4650000000000E+01
(PID.TID 0000.0001) %MON dynstat_salt_sd              =   0.0000000000000E+00
(PID.TID 0000.0001) %MON dynstat_salt_del2            =   0.0000000000000E+00
(PID.TID 0000.0001) %MON dynstat_sst_max              =   2.4000000000000E+01
(PID.TID 0000.0001) %MON dynstat_sst_min              =   2.4000000000000E+01
(PID.TID 0000.0001) %MON dynstat_sst_mean             =   2.4000000000000E+01
(PID.TID 0000.0001) %MON dynstat_sst_sd               =   0.0000000000000E+00
(PID.TID 0000.0001) %MON dynstat_sst_del2             =   0.0000000000000E+00
(PID.TID 0000.0001) %MON dynstat_sss_max              =   3.4650000000000E+01
(PID.TID 0000.0001) %MON dynstat_sss_min              =   3.4650000000000E+01
(PID.TID 0000.0001) %MON dynstat_sss_mean             =   3.4650000000000E+01
(PID.TID 0000.0001) %MON dynstat_sss_sd               =   0.0000000000000E+00
(PID.TID 0000.0001) %MON dynstat_sss_del2             =   0.0000000000000E+00
(PID.TID 0000.0001) %MON forcing_qnet_max             =   0.0000000000000E+00
(PID.TID 0000.0001) %MON forcing_qnet_min             =   0.0000000000000E+00
(PID.TID 0000.0001) %MON forcing_qnet_mean            =   0.0000000000000E+00
(PID.TID 0000.0001) %MON forcing_qnet_sd              =   0.0000000000000E+00
(PID.TID 0000.0001) %MON forcing_qnet_del2            =   0.0000000000000E+00
(PID.TID 0000.0001) %MON forcing_qsw_max              =   0.0000000000000E+00
(PID.TID 0000.0001) %MON forcing_qsw_min              =   0.0000000000000E+00
(PID.TID 0000.0001) %MON forcing_qsw_mean             =   0.0000000000000E+00
(PID.TID 0000.0001) %MON forcing_qsw_sd               =   0.0000000000000E+00
(PID.TID 0000.0001) %MON forcing_qsw_del2             =   0.0000000000000E+00
(PID.TID 0000.0001) %MON forcing_empmr_max            =   0.0000000000000E+00
(PID.TID 0000.0001) %MON forcing_empmr_min            =   0.0000000000000E+00
(PID.TID 0000.0001) %MON forcing_empmr_mean           =   0.0000000000000E+00
(PID.TID 0000.0001) %MON forcing_empmr_sd             =   0.0000000000000E+00
(PID.TID 0000.0001) %MON forcing_empmr_del2           =   0.0000000000000E+00
(PID.TID 0000.0001) %MON forcing_fu_max               =   3.0472517332733E-06
(PID.TID 0000.0001) %MON forcing_fu_min               =  -3.0472495484847E-06
(PID.TID 0000.0001) %MON forcing_fu_mean              =   1.0491393231204E-12
(PID.TID 0000.0001) %MON forcing_fu_sd                =   1.5059380169928E-06
(PID.TID 0000.0001) %MON forcing_fu_del2              =   7.7677039453908E-09
(PID.TID 0000.0001) %MON forcing_fv_max               =   0.0000000000000E+00
(PID.TID 0000.0001) %MON forcing_fv_min               =  -1.2493753123438E-04
(PID.TID 0000.0001) %MON forcing_fv_mean              =  -9.0167324784171E-06
(PID.TID 0000.0001) %MON forcing_fv_sd                =   1.2444231395495E-05
(PID.TID 0000.0001) %MON forcing_fv_del2              =   1.8294866591542E-07
(PID.TID 0000.0001) %MON trAdv_CFL_u_max              =   0.0000000000000E+00
(PID.TID 0000.0001) %MON trAdv_CFL_v_max              =   0.0000000000000E+00
(PID.TID 0000.0001) %MON trAdv_CFL_w_max              =   0.0000000000000E+00
(PID.TID 0000.0001) %MON advcfl_uvel_max              =   0.0000000000000E+00
(PID.TID 0000.0001) %MON advcfl_vvel_max              =   0.0000000000000E+00
(PID.TID 0000.0001) %MON advcfl_wvel_max              =   0.0000000000000E+00
(PID.TID 0000.0001) %MON advcfl_W_hf_max              =   0.0000000000000E+00
(PID.TID 0000.0001) %MON pe_b_mean                    =   0.0000000000000E+00
(PID.TID 0000.0001) %MON ke_max                       =   0.0000000000000E+00
(PID.TID 0000.0001) %MON ke_mean                      =   0.0000000000000E+00
(PID.TID 0000.0001) %MON ke_vol                       =   4.6550000000000E+10
(PID.TID 0000.0001) %MON vort_r_min                   =   0.0000000000000E+00
(PID.TID 0000.0001) %MON vort_r_max                   =   0.0000000000000E+00
(PID.TID 0000.0001) %MON vort_a_mean                  =   0.0000000000000E+00
(PID.TID 0000.0001) %MON vort_a_sd                    =   0.0000000000000E+00
(PID.TID 0000.0001) %MON vort_p_mean                  =   0.0000000000000E+00
(PID.TID 0000.0001) %MON vort_p_sd                    =   0.0000000000000E+00
(PID.TID 0000.0001) %MON surfExpan_theta_mean         =   0.0000000000000E+00
(PID.TID 0000.0001) %MON surfExpan_salt_mean          =   0.0000000000000E+00
(PID.TID 0000.0001) // =======================================================
(PID.TID 0000.0001) // End MONITOR dynamic field statistics
(PID.TID 0000.0001) // =======================================================
(PID.TID 0000.0001) // =======================================================
(PID.TID 0000.0001) // Begin OBCS MONITOR field statistics
(PID.TID 0000.0001) // =======================================================
(PID.TID 0000.0001) %MON obc_E_uVel_max               =   0.0000000000000E+00
(PID.TID 0000.0001) %MON obc_E_uVel_min               =   0.0000000000000E+00
(PID.TID 0000.0001) %MON obc_E_uVel_mean              =   0.0000000000000E+00
(PID.TID 0000.0001) %MON obc_E_uVel_sd                =   0.0000000000000E+00
(PID.TID 0000.0001) %MON obc_E_uVel_Int               =   0.0000000000000E+00
(PID.TID 0000.0001) %MON obc_W_uVel_max               =   0.0000000000000E+00
(PID.TID 0000.0001) %MON obc_W_uVel_min               =   0.0000000000000E+00
(PID.TID 0000.0001) %MON obc_W_uVel_mean              =   0.0000000000000E+00
(PID.TID 0000.0001) %MON obc_W_uVel_sd                =   0.0000000000000E+00
(PID.TID 0000.0001) %MON obc_W_uVel_Int               =   0.0000000000000E+00
(PID.TID 0000.0001) %MON obc_N_vVel_max               =   0.0000000000000E+00
(PID.TID 0000.0001) %MON obc_N_vVel_min               =   0.0000000000000E+00
(PID.TID 0000.0001) %MON obc_N_vVel_mean              =   0.0000000000000E+00
(PID.TID 0000.0001) %MON obc_N_vVel_sd                =   0.0000000000000E+00
(PID.TID 0000.0001) %MON obc_N_vVel_Int               =   0.0000000000000E+00
(PID.TID 0000.0001) // =======================================================
(PID.TID 0000.0001) // End OBCS MONITOR field statistics
(PID.TID 0000.0001) // =======================================================
(PID.TID 0000.0001) // =======================================================
(PID.TID 0000.0001) // Begin MONITOR SEAICE statistics
(PID.TID 0000.0001) // =======================================================
(PID.TID 0000.0001) %MON seaice_tsnumber              =                    10
(PID.TID 0000.0001) %MON seaice_time_sec              =   1.0000000000000E+00
(PID.TID 0000.0001) %MON seaice_uice_max              =   1.8631081898279E-05
(PID.TID 0000.0001) %MON seaice_uice_min              =  -1.8627498159099E-05
(PID.TID 0000.0001) %MON seaice_uice_mean             =   4.7944846095388E-12
(PID.TID 0000.0001) %MON seaice_uice_sd               =   6.4495912161871E-06
(PID.TID 0000.0001) %MON seaice_uice_del2             =   6.3887609386908E-08
(PID.TID 0000.0001) %MON seaice_vice_max              =   0.0000000000000E+00
(PID.TID 0000.0001) %MON seaice_vice_min              =  -4.9975012493753E-04
(PID.TID 0000.0001) %MON seaice_vice_mean             =  -3.8870149753272E-05
(PID.TID 0000.0001) %MON seaice_vice_sd               =   5.2624516920182E-05
(PID.TID 0000.0001) %MON seaice_vice_del2             =   7.4807943082622E-07
(PID.TID 0000.0001) %MON seaice_area_max              =   1.0000000000000E+00
(PID.TID 0000.0001) %MON seaice_area_min              =   0.0000000000000E+00
(PID.TID 0000.0001) %MON seaice_area_mean             =   8.4210526315789E-01
(PID.TID 0000.0001) %MON seaice_area_sd               =   3.6464227527766E-01
(PID.TID 0000.0001) %MON seaice_area_del2             =   5.3165923397485E-03
(PID.TID 0000.0001) %MON seaice_heff_max              =   1.0000009435626E+00
(PID.TID 0000.0001) %MON seaice_heff_min              =   0.0000000000000E+00
(PID.TID 0000.0001) %MON seaice_heff_mean             =   8.4210527137968E-01
(PID.TID 0000.0001) %MON seaice_heff_sd               =   3.6464227883781E-01
(PID.TID 0000.0001) %MON seaice_heff_del2             =   5.3165923908813E-03
(PID.TID 0000.0001) %MON seaice_hsnow_max             =   2.0000018871252E-01
(PID.TID 0000.0001) %MON seaice_hsnow_min             =   0.0000000000000E+00
(PID.TID 0000.0001) %MON seaice_hsnow_mean            =   1.6842105427594E-01
(PID.TID 0000.0001) %MON seaice_hsnow_sd              =   7.2928455767562E-02
(PID.TID 0000.0001) %MON seaice_hsnow_del2            =   1.0633184781763E-03
(PID.TID 0000.0001) // =======================================================
(PID.TID 0000.0001) // End MONITOR SEAICE statistics
(PID.TID 0000.0001) // =======================================================
 Computing Diagnostic #    216  SIsig11      Counter:       1   Parms: SM      M1      
 Computing Diagnostic #    217  SIsig22      Counter:       1   Parms: SM      M1      
 Computing Diagnostic #    155  SIuice       Counter:       1   Parms: UU      M1      
           Vector  Mate for  SIuice       Diagnostic #    156  SIvice   exists 
 Computing Diagnostic #    156  SIvice       Counter:       1   Parms: VV      M1      
           Vector  Mate for  SIvice       Diagnostic #    155  SIuice   exists 
 Computing Diagnostic #    146  SIarea       Counter:       1   Parms: SM      M1      
 Computing Diagnostic #    149  SIheff       Counter:       1   Parms: SM      M1      
 Computing Diagnostic #    219  SIeps11      Counter:       1   Parms: SM      M1      
 Computing Diagnostic #    220  SIeps22      Counter:       1   Parms: SM      M1      
 Computing Diagnostic #    218  SIsig12      Counter:       1   Parms: SM      M1      
 Computing Diagnostic #    221  SIeps12      Counter:       1   Parms: SM      M1      
(PID.TID 0000.0001) %CHECKPOINT        10 ckptA
(PID.TID 0000.0001)   Seconds in section "ALL                    [THE_MODEL_MAIN]":
(PID.TID 0000.0001)           User time:   15.701602187240496
(PID.TID 0000.0001)         System time:   9.0661003254354000E-002
(PID.TID 0000.0001)     Wall clock time:   15.888689994812012
(PID.TID 0000.0001)          No. starts:           1
(PID.TID 0000.0001)           No. stops:           1
(PID.TID 0000.0001)   Seconds in section "INITIALISE_FIXED       [THE_MODEL_MAIN]":
(PID.TID 0000.0001)           User time:   2.2386000957340002E-002
(PID.TID 0000.0001)         System time:   2.0003000507131219E-002
(PID.TID 0000.0001)     Wall clock time:   4.5975923538208008E-002
(PID.TID 0000.0001)          No. starts:           1
(PID.TID 0000.0001)           No. stops:           1
(PID.TID 0000.0001)   Seconds in section "THE_MAIN_LOOP          [THE_MODEL_MAIN]":
(PID.TID 0000.0001)           User time:   15.679189419373870
(PID.TID 0000.0001)         System time:   7.0653002709150314E-002
(PID.TID 0000.0001)     Wall clock time:   15.842689037322998
(PID.TID 0000.0001)          No. starts:           1
(PID.TID 0000.0001)           No. stops:           1
(PID.TID 0000.0001)   Seconds in section "INITIALISE_VARIA    [THE_MAIN_LOOP]":
(PID.TID 0000.0001)           User time:   5.5900011211633682E-003
(PID.TID 0000.0001)         System time:   2.5410000234842300E-003
(PID.TID 0000.0001)     Wall clock time:   8.1429481506347656E-003
(PID.TID 0000.0001)          No. starts:           1
(PID.TID 0000.0001)           No. stops:           1
(PID.TID 0000.0001)   Seconds in section "MAIN LOOP           [THE_MAIN_LOOP]":
(PID.TID 0000.0001)           User time:   15.673565160483122
(PID.TID 0000.0001)         System time:   6.8109003826975822E-002
(PID.TID 0000.0001)     Wall clock time:   15.834510087966919
(PID.TID 0000.0001)          No. starts:           1
(PID.TID 0000.0001)           No. stops:           1
(PID.TID 0000.0001)   Seconds in section "MAIN_DO_LOOP        [THE_MAIN_LOOP]":
(PID.TID 0000.0001)           User time:   15.673498462885618
(PID.TID 0000.0001)         System time:   6.8104002624750137E-002
(PID.TID 0000.0001)     Wall clock time:   15.834437370300293
(PID.TID 0000.0001)          No. starts:          10
(PID.TID 0000.0001)           No. stops:          10
(PID.TID 0000.0001)   Seconds in section "FORWARD_STEP        [MAIN_DO_LOOP]":
(PID.TID 0000.0001)           User time:   15.673359286040068
(PID.TID 0000.0001)         System time:   6.8096000701189041E-002
(PID.TID 0000.0001)     Wall clock time:   15.834289789199829
(PID.TID 0000.0001)          No. starts:          10
(PID.TID 0000.0001)           No. stops:          10
(PID.TID 0000.0001)   Seconds in section "DO_STATEVARS_DIAGS  [FORWARD_STEP]":
(PID.TID 0000.0001)           User time:   2.2942088544368744E-003
(PID.TID 0000.0001)         System time:   2.5900080800056458E-004
(PID.TID 0000.0001)     Wall clock time:   2.5799274444580078E-003
(PID.TID 0000.0001)          No. starts:          20
(PID.TID 0000.0001)           No. stops:          20
(PID.TID 0000.0001)   Seconds in section "LOAD_FIELDS_DRIVER  [FORWARD_STEP]":
(PID.TID 0000.0001)           User time:   1.7818100750446320E-003
(PID.TID 0000.0001)         System time:   5.2003189921379089E-005
(PID.TID 0000.0001)     Wall clock time:   1.8308162689208984E-003
(PID.TID 0000.0001)          No. starts:          10
(PID.TID 0000.0001)           No. stops:          10
(PID.TID 0000.0001)   Seconds in section "EXF_GETFORCING     [LOAD_FLDS_DRIVER]":
(PID.TID 0000.0001)           User time:   1.5192180871963501E-003
(PID.TID 0000.0001)         System time:   3.0001625418663025E-005
(PID.TID 0000.0001)     Wall clock time:   1.5530586242675781E-003
(PID.TID 0000.0001)          No. starts:          10
(PID.TID 0000.0001)           No. stops:          10
(PID.TID 0000.0001)   Seconds in section "EXTERNAL_FLDS_LOAD [LOAD_FLDS_DRIVER]":
(PID.TID 0000.0001)           User time:   6.2450766563415527E-005
(PID.TID 0000.0001)         System time:   9.0058892965316772E-006
(PID.TID 0000.0001)     Wall clock time:   7.1048736572265625E-005
(PID.TID 0000.0001)          No. starts:          10
(PID.TID 0000.0001)           No. stops:          10
(PID.TID 0000.0001)   Seconds in section "DO_ATMOSPHERIC_PHYS [FORWARD_STEP]":
(PID.TID 0000.0001)           User time:   6.5315514802932739E-005
(PID.TID 0000.0001)         System time:   9.0003013610839844E-006
(PID.TID 0000.0001)     Wall clock time:   7.2479248046875000E-005
(PID.TID 0000.0001)          No. starts:          10
(PID.TID 0000.0001)           No. stops:          10
(PID.TID 0000.0001)   Seconds in section "DO_OCEANIC_PHYS     [FORWARD_STEP]":
(PID.TID 0000.0001)           User time:   15.638098094612360
(PID.TID 0000.0001)         System time:   4.2259005829691887E-002
(PID.TID 0000.0001)     Wall clock time:   15.766416072845459
(PID.TID 0000.0001)          No. starts:          10
(PID.TID 0000.0001)           No. stops:          10
(PID.TID 0000.0001)   Seconds in section "SEAICE_MODEL    [DO_OCEANIC_PHYS]":
(PID.TID 0000.0001)           User time:   15.636356838047504
(PID.TID 0000.0001)         System time:   4.2168991640210152E-002
(PID.TID 0000.0001)     Wall clock time:   15.764580726623535
(PID.TID 0000.0001)          No. starts:          10
(PID.TID 0000.0001)           No. stops:          10
(PID.TID 0000.0001)   Seconds in section "SEAICE_DYNSOLVER   [SEAICE_MODEL]":
(PID.TID 0000.0001)           User time:   15.629721608012915
(PID.TID 0000.0001)         System time:   4.1996996849775314E-002
(PID.TID 0000.0001)     Wall clock time:   15.757779359817505
(PID.TID 0000.0001)          No. starts:          10
(PID.TID 0000.0001)           No. stops:          10
(PID.TID 0000.0001)   Seconds in section "THERMODYNAMICS      [FORWARD_STEP]":
(PID.TID 0000.0001)           User time:   8.2600116729736328E-004
(PID.TID 0000.0001)         System time:   8.0995261669158936E-005
(PID.TID 0000.0001)     Wall clock time:   9.1600418090820312E-004
(PID.TID 0000.0001)          No. starts:          10
(PID.TID 0000.0001)           No. stops:          10
(PID.TID 0000.0001)   Seconds in section "TRC_CORRECTION_STEP [FORWARD_STEP]":
(PID.TID 0000.0001)           User time:   6.0677528381347656E-005
(PID.TID 0000.0001)         System time:   2.0004808902740479E-006
(PID.TID 0000.0001)     Wall clock time:   6.0796737670898438E-005
(PID.TID 0000.0001)          No. starts:          10
(PID.TID 0000.0001)           No. stops:          10
(PID.TID 0000.0001)   Seconds in section "BLOCKING_EXCHANGES  [FORWARD_STEP]":
(PID.TID 0000.0001)           User time:   1.6140937805175781E-004
(PID.TID 0000.0001)         System time:   2.9951333999633789E-006
(PID.TID 0000.0001)     Wall clock time:   1.6570091247558594E-004
(PID.TID 0000.0001)          No. starts:          10
(PID.TID 0000.0001)           No. stops:          10
(PID.TID 0000.0001)   Seconds in section "MONITOR             [FORWARD_STEP]":
(PID.TID 0000.0001)           User time:   9.4904899597167969E-003
(PID.TID 0000.0001)         System time:   4.1000917553901672E-004
(PID.TID 0000.0001)     Wall clock time:   9.9062919616699219E-003
(PID.TID 0000.0001)          No. starts:          10
(PID.TID 0000.0001)           No. stops:          10
(PID.TID 0000.0001)   Seconds in section "DO_THE_MODEL_IO     [FORWARD_STEP]":
(PID.TID 0000.0001)           User time:   1.8155217170715332E-002
(PID.TID 0000.0001)         System time:   2.2365998476743698E-002
(PID.TID 0000.0001)     Wall clock time:   4.7301054000854492E-002
(PID.TID 0000.0001)          No. starts:          10
(PID.TID 0000.0001)           No. stops:          10
(PID.TID 0000.0001)   Seconds in section "DO_WRITE_PICKUP     [FORWARD_STEP]":
(PID.TID 0000.0001)           User time:   1.6671419143676758E-003
(PID.TID 0000.0001)         System time:   2.5810077786445618E-003
(PID.TID 0000.0001)     Wall clock time:   4.2519569396972656E-003
(PID.TID 0000.0001)          No. starts:          10
(PID.TID 0000.0001)           No. stops:          10
(PID.TID 0000.0001) // ======================================================
(PID.TID 0000.0001) // Tile <-> Tile communication statistics
(PID.TID 0000.0001) // ======================================================
(PID.TID 0000.0001) // o Tile number: 000001
(PID.TID 0000.0001) //         No. X exchanges =              0
(PID.TID 0000.0001) //            Max. X spins =              0
(PID.TID 0000.0001) //            Min. X spins =     1000000000
(PID.TID 0000.0001) //          Total. X spins =              0
(PID.TID 0000.0001) //            Avg. X spins =       0.00E+00
(PID.TID 0000.0001) //         No. Y exchanges =              0
(PID.TID 0000.0001) //            Max. Y spins =              0
(PID.TID 0000.0001) //            Min. Y spins =     1000000000
(PID.TID 0000.0001) //          Total. Y spins =              0
(PID.TID 0000.0001) //            Avg. Y spins =       0.00E+00
(PID.TID 0000.0001) // o Thread number: 000001
(PID.TID 0000.0001) //            No. barriers =         165346
(PID.TID 0000.0001) //      Max. barrier spins =              1
(PID.TID 0000.0001) //      Min. barrier spins =              1
(PID.TID 0000.0001) //     Total barrier spins =         165346
(PID.TID 0000.0001) //      Avg. barrier spins =       1.00E+00
PROGRAM MAIN: Execution ended Normally
